  23
 
C     0.0000000    0.0000000    0.0000000
H     0.5870000    0.5390000   -0.7320000
H     0.5510000   -0.5500000    0.7480000
C    -1.3360000    0.0000000    0.0000000
H    -1.8830000   -0.5520000    0.7520000
C    -2.2310000    0.7060000   -0.9580000
O    -3.4520000    0.6260000   -0.8500000
N    -1.6480000    1.4310000   -1.9460000
H    -0.6490000    1.4900000   -2.0240000
C    -2.4610000    2.1470000   -2.9180000
H    -3.1080000    1.4390000   -3.4370000
H    -3.1080000    2.8530000   -2.3970000
C    -1.5580000    2.8570000   -3.8820000
C    -1.1100000    4.1510000   -3.6110000
H    -1.4590000    4.6570000   -2.7180000
C    -0.2320000    4.7940000   -4.4800000
H     0.1020000    5.7990000   -4.2630000
C     0.2100000    4.1430000   -5.6310000
H     0.8890000    4.6420000   -6.3080000
C    -0.2320000    2.8510000   -5.9090000
H     0.1030000    2.3450000   -6.8050000
C    -1.1100000    2.2110000   -5.0370000
H    -1.4580000    1.2100000   -5.2540000
