18
Coordinates from ORCA-job structure_opt
  C   -0.00665460682724      0.01408023302240      1.78957569094144
  N   1.15076033656445     -0.16312243672443      2.42524675108227
  C   1.17772568660181     -0.13996440757831      3.75914468569978
  C   0.05473795508467      0.05757984137593      4.54699888002495
  C   -1.15897209345456      0.23363587377048      3.91116237277119
  C   -1.17871979826417      0.21744243383703      2.52523440903213
  N   -2.49368632055947      0.42796365860987      1.90493991101200
  O   -2.58473847190721      1.16490977418313      0.94784837712486
  O   -3.43909438568382     -0.14533974729077      2.41430280598467
  F   3.13989891152604      2.49986549083264      0.91910361791274
  H   2.15216938852042     -0.28194589614477      4.21577173490301
  H   0.13049420765279      0.07163698357952      5.62710840290826
  H   -2.07739486107592      0.38972958798880      4.46540315177477
  C   0.04950471419669      1.62597451254388     -0.48225795091373
  H   -0.87579770968566      2.11307464792262     -0.18725175085256
  H   0.13123762940773      1.62449355056656     -1.57097098976234
  H   0.92138193209882      2.13260521409876     -0.06026175291631
  S   0.06414748580464     -0.11961931459335      0.00990165327288
