Coordinates from ORCA-job TS_search_opt_without_h_MEP E -990.259778983300
 OpenBabel09152311013D

 18 17  0  0  0  0  0  0  0  0999 V2000
    1.1536   -2.2351   -1.0744 C   0  0  0  0  0  0  0  0  0  0  0  0
    2.2803   -2.4110   -0.4588 N   0  0  0  0  0  0  0  0  0  0  0  0
    2.3501   -2.4214    0.8773 C   0  0  0  0  0  0  0  0  0  0  0  0
    1.2419   -2.2503    1.6755 C   0  0  0  0  0  0  0  0  0  0  0  0
    0.0438   -2.0634    1.0170 C   0  0  0  0  0  0  0  0  0  0  0  0
   -0.0366   -2.0511   -0.3369 C   0  0  0  0  0  0  0  0  0  0  0  0
   -1.3062   -1.8523   -0.9881 N   0  0  0  0  0  0  0  0  0  0  0  0
   -1.3977   -1.8369   -2.2326 O   0  0  0  0  0  0  0  0  0  0  0  0
   -2.3555   -1.6895   -0.3063 O   0  0  0  0  0  0  0  0  0  0  0  0
    1.1467   -2.2326   -2.4244 F   0  0  0  0  0  0  0  0  0  0  0  0
    3.3370   -2.5737    1.2999 H   0  0  0  0  0  0  0  0  0  0  0  0
    1.3054   -2.2615    2.7552 H   0  0  0  0  0  0  0  0  0  0  0  0
   -0.8780   -1.9205    1.4569 H   0  0  0  0  0  0  0  0  0  0  0  0
   -1.4182    5.6837   -0.2098 C   0  0  0  0  0  0  0  0  0  0  0  0
   -2.5053    5.7633   -0.2973 H   0  0  0  0  0  0  0  0  0  0  0  0
   -0.9534    6.4645   -0.8180 H   0  0  0  0  0  0  0  0  0  0  0  0
   -1.1346    5.8289    0.8363 H   0  0  0  0  0  0  0  0  0  0  0  0
   -0.8732    4.0593   -0.7717 S   0  0  0  0  0  1  0  0  0  0  0  0
  1  2  2  0  0  0  0
  1  6  1  0  0  0  0
  2  3  1  0  0  0  0
  3 11  1  0  0  0  0
  3  4  2  0  0  0  0
  4 12  1  0  0  0  0
  5 13  1  0  0  0  0
  5  4  1  0  0  0  0
  6  5  2  0  0  0  0
  7  6  1  0  0  0  0
  7  9  2  0  0  0  0
  8  7  2  0  0  0  0
 10  1  1  0  0  0  0
 14 17  1  0  0  0  0
 15 14  1  0  0  0  0
 16 14  1  0  0  0  0
 18 14  1  0  0  0  0
M  END
$$$$
Coordinates from ORCA-job TS_search_opt_without_h_MEP E -990.248952083174
 OpenBabel09152311013D

 18 17  0  0  0  0  0  0  0  0999 V2000
    1.0530   -1.0547   -0.8054 C   0  0  0  0  0  0  0  0  0  0  0  0
    2.1573   -1.5885   -0.3916 N   0  0  0  0  0  0  0  0  0  0  0  0
    2.2278   -2.2173    0.7740 C   0  0  0  0  0  0  0  0  0  0  0  0
    1.1173   -2.3616    1.5810 C   0  0  0  0  0  0  0  0  0  0  0  0
   -0.1123   -2.0193    1.0404 C   0  0  0  0  0  0  0  0  0  0  0  0
   -0.1969   -1.4007   -0.2099 C   0  0  0  0  0  0  0  0  0  0  0  0
   -1.5550   -1.2295   -0.7694 N   0  0  0  0  0  0  0  0  0  0  0  0
   -1.6614   -0.7353   -1.8730 O   0  0  0  0  0  0  0  0  0  0  0  0
   -2.4992   -1.6246   -0.1094 O   0  0  0  0  0  0  0  0  0  0  0  0
    1.3907   -0.0361   -1.6796 F   0  0  0  0  0  0  0  0  0  0  0  0
    3.2279   -2.5204    1.0544 H   0  0  0  0  0  0  0  0  0  0  0  0
    1.2194   -2.7460    2.5870 H   0  0  0  0  0  0  0  0  0  0  0  0
   -1.0145   -2.2106    1.6108 H   0  0  0  0  0  0  0  0  0  0  0  0
   -1.0895    4.4500   -0.4897 C   0  0  0  0  0  0  0  0  0  0  0  0
   -2.1070    4.4673   -0.0845 H   0  0  0  0  0  0  0  0  0  0  0  0
   -0.9405    5.3827   -1.0445 H   0  0  0  0  0  0  0  0  0  0  0  0
   -0.3989    4.4615    0.3611 H   0  0  0  0  0  0  0  0  0  0  0  0
   -0.8181    2.9831   -1.5519 S   0  0  0  0  0  1  0  0  0  0  0  0
  1  2  2  0  0  0  0
  1  6  1  0  0  0  0
  2  3  1  0  0  0  0
  3 11  1  0  0  0  0
  3  4  2  0  0  0  0
  4 12  1  0  0  0  0
  5  4  1  0  0  0  0
  5 13  1  0  0  0  0
  6  5  2  0  0  0  0
  7  6  1  0  0  0  0
  7  9  2  0  0  0  0
  8  7  2  0  0  0  0
 10  1  1  0  0  0  0
 14 15  1  0  0  0  0
 14 17  1  0  0  0  0
 16 14  1  0  0  0  0
 18 14  1  0  0  0  0
M  END
$$$$
Coordinates from ORCA-job TS_search_opt_without_h_MEP E -990.131885704647
 OpenBabel09152311013D

 18 16  0  0  0  0  0  0  0  0999 V2000
    0.9223   -1.2373   -0.8113 C   0  0  0  0  0  3  0  0  0  0  0  0
    1.9877   -1.6656   -0.4411 N   0  0  0  0  0  0  0  0  0  0  0  0
    2.2303   -2.2003    0.7548 C   0  0  0  0  0  0  0  0  0  0  0  0
    1.1262   -2.3434    1.5697 C   0  0  0  0  0  0  0  0  0  0  0  0
   -0.1415   -2.0378    1.0702 C   0  0  0  0  0  0  0  0  0  0  0  0
   -0.3140   -1.4820   -0.2032 C   0  0  0  0  0  0  0  0  0  0  0  0
   -1.6618   -1.2793   -0.7527 N   0  0  0  0  0  0  0  0  0  0  0  0
   -1.7453   -0.7722   -1.8485 O   0  0  0  0  0  0  0  0  0  0  0  0
   -2.6031   -1.6551   -0.0858 O   0  0  0  0  0  0  0  0  0  0  0  0
    2.0569    0.3179   -1.6907 F   0  0  0  0  0 15  0  0  0  0  0  0
    3.2546   -2.4271    1.0032 H   0  0  0  0  0  0  0  0  0  0  0  0
    1.2590   -2.7096    2.5770 H   0  0  0  0  0  0  0  0  0  0  0  0
   -1.0215   -2.2183    1.6865 H   0  0  0  0  0  0  0  0  0  0  0  0
   -1.0871    4.4420   -0.4923 C   0  0  0  0  0  0  0  0  0  0  0  0
   -2.1022    4.4594   -0.0846 H   0  0  0  0  0  0  0  0  0  0  0  0
   -0.9385    5.3738   -1.0464 H   0  0  0  0  0  0  0  0  0  0  0  0
   -0.3941    4.4522    0.3556 H   0  0  0  0  0  0  0  0  0  0  0  0
   -0.8280    2.9828   -1.5605 S   0  0  0  0  0  1  0  0  0  0  0  0
  1  2  2  0  0  0  0
  1  6  1  0  0  0  0
  2  3  1  0  0  0  0
  3 11  1  0  0  0  0
  3  4  2  0  0  0  0
  4 12  1  0  0  0  0
  5  4  1  0  0  0  0
  5 13  1  0  0  0  0
  6  5  2  0  0  0  0
  7  6  1  0  0  0  0
  7  9  2  0  0  0  0
  8  7  2  0  0  0  0
 14 15  1  0  0  0  0
 14 17  1  0  0  0  0
 16 14  1  0  0  0  0
 18 14  1  0  0  0  0
M  END
$$$$
Coordinates from ORCA-job TS_search_opt_without_h_MEP E -990.115865401291
 OpenBabel09152311013D

 18 16  0  0  0  0  0  0  0  0999 V2000
    0.7613   -1.4156   -0.8115 C   0  0  0  0  0  3  0  0  0  0  0  0
    1.8761   -1.6564   -0.5139 N   0  0  0  0  0  0  0  0  0  0  0  0
    2.2212   -2.1247    0.7133 C   0  0  0  0  0  0  0  0  0  0  0  0
    1.1325   -2.3200    1.5443 C   0  0  0  0  0  0  0  0  0  0  0  0
   -0.1751   -2.0626    1.1029 C   0  0  0  0  0  0  0  0  0  0  0  0
   -0.4364   -1.5835   -0.1802 C   0  0  0  0  0  0  0  0  0  0  0  0
   -1.7564   -1.3271   -0.7326 N   0  0  0  0  0  0  0  0  0  0  0  0
   -1.7960   -0.7975   -1.8201 O   0  0  0  0  0  0  0  0  0  0  0  0
   -2.7058   -1.6718   -0.0684 O   0  0  0  0  0  0  0  0  0  0  0  0
    2.6515    0.5584   -1.6432 F   0  0  0  0  0 15  0  0  0  0  0  0
    3.2586   -2.3196    0.9456 H   0  0  0  0  0  0  0  0  0  0  0  0
    1.3020   -2.6920    2.5462 H   0  0  0  0  0  0  0  0  0  0  0  0
   -1.0262   -2.2283    1.7600 H   0  0  0  0  0  0  0  0  0  0  0  0
   -1.0795    4.4282   -0.4961 C   0  0  0  0  0  0  0  0  0  0  0  0
   -2.0956    4.4444   -0.0904 H   0  0  0  0  0  0  0  0  0  0  0  0
   -0.9349    5.3590   -1.0531 H   0  0  0  0  0  0  0  0  0  0  0  0
   -0.3891    4.4465    0.3533 H   0  0  0  0  0  0  0  0  0  0  0  0
   -0.8083    2.9625   -1.5559 S   0  0  0  0  0  1  0  0  0  0  0  0
  1  2  2  0  0  0  0
  1  6  1  0  0  0  0
  2  3  1  0  0  0  0
  3 11  1  0  0  0  0
  3  4  2  0  0  0  0
  4 12  1  0  0  0  0
  5  4  1  0  0  0  0
  5 13  1  0  0  0  0
  6  5  2  0  0  0  0
  7  6  1  0  0  0  0
  7  9  2  0  0  0  0
  8  7  2  0  0  0  0
 14 15  1  0  0  0  0
 14 17  1  0  0  0  0
 16 14  1  0  0  0  0
 18 14  1  0  0  0  0
M  END
$$$$
Coordinates from ORCA-job TS_search_opt_without_h_MEP E -990.115648627673
 OpenBabel09152311013D

 18 16  0  0  0  0  0  0  0  0999 V2000
    0.6485   -1.3408   -0.8250 C   0  0  0  0  0  3  0  0  0  0  0  0
    1.7827   -1.5345   -0.5743 N   0  0  0  0  0  0  0  0  0  0  0  0
    2.1892   -2.0266    0.6282 C   0  0  0  0  0  0  0  0  0  0  0  0
    1.1350   -2.2994    1.4821 C   0  0  0  0  0  0  0  0  0  0  0  0
   -0.1976   -2.0751    1.0955 C   0  0  0  0  0  0  0  0  0  0  0  0
   -0.5198   -1.5703   -0.1614 C   0  0  0  0  0  0  0  0  0  0  0  0
   -1.8572   -1.3189   -0.6676 N   0  0  0  0  0  0  0  0  0  0  0  0
   -1.9329   -0.7488   -1.7323 O   0  0  0  0  0  0  0  0  0  0  0  0
   -2.7834   -1.7037    0.0067 O   0  0  0  0  0  0  0  0  0  0  0  0
    3.0152    0.7205   -1.2522 F   0  0  0  0  0 15  0  0  0  0  0  0
    3.2402   -2.1904    0.8235 H   0  0  0  0  0  0  0  0  0  0  0  0
    1.3504   -2.7013    2.4644 H   0  0  0  0  0  0  0  0  0  0  0  0
   -1.0174   -2.2825    1.7791 H   0  0  0  0  0  0  0  0  0  0  0  0
   -1.0303    4.3130   -0.5396 C   0  0  0  0  0  0  0  0  0  0  0  0
   -2.0360    4.2943   -0.1083 H   0  0  0  0  0  0  0  0  0  0  0  0
   -0.9285    5.2549   -1.0878 H   0  0  0  0  0  0  0  0  0  0  0  0
   -0.3198    4.3424    0.2925 H   0  0  0  0  0  0  0  0  0  0  0  0
   -0.7384    2.8672   -1.6233 S   0  0  0  0  0  1  0  0  0  0  0  0
  1  2  2  0  0  0  0
  1  6  1  0  0  0  0
  2  3  1  0  0  0  0
  3 11  1  0  0  0  0
  3  4  2  0  0  0  0
  4 12  1  0  0  0  0
  5  4  1  0  0  0  0
  5 13  1  0  0  0  0
  6  5  2  0  0  0  0
  7  6  1  0  0  0  0
  7  9  2  0  0  0  0
  8  7  2  0  0  0  0
 14 15  1  0  0  0  0
 14 17  1  0  0  0  0
 16 14  1  0  0  0  0
 18 14  1  0  0  0  0
M  END
$$$$
Coordinates from ORCA-job TS_search_opt_without_h_MEP E -990.116815726225
 OpenBabel09152311013D

 18 16  0  0  0  0  0  0  0  0999 V2000
    0.5536   -1.1421   -0.7901 C   0  0  0  0  0  3  0  0  0  0  0  0
    1.7031   -1.3284   -0.5840 N   0  0  0  0  0  0  0  0  0  0  0  0
    2.1490   -1.9244    0.5551 C   0  0  0  0  0  0  0  0  0  0  0  0
    1.1280   -2.2901    1.4132 C   0  0  0  0  0  0  0  0  0  0  0  0
   -0.2194   -2.0711    1.0802 C   0  0  0  0  0  0  0  0  0  0  0  0
   -0.5869   -1.4783   -0.1240 C   0  0  0  0  0  0  0  0  0  0  0  0
   -1.9456   -1.2674   -0.5919 N   0  0  0  0  0  0  0  0  0  0  0  0
   -2.0707   -0.6783   -1.6403 O   0  0  0  0  0  0  0  0  0  0  0  0
   -2.8396   -1.7110    0.0922 O   0  0  0  0  0  0  0  0  0  0  0  0
    3.2256    0.9656   -0.9051 F   0  0  0  0  0 15  0  0  0  0  0  0
    3.2067   -2.0930    0.7037 H   0  0  0  0  0  0  0  0  0  0  0  0
    1.3785   -2.7654    2.3534 H   0  0  0  0  0  0  0  0  0  0  0  0
   -1.0166   -2.3581    1.7617 H   0  0  0  0  0  0  0  0  0  0  0  0
   -0.9544    4.1260   -0.5907 C   0  0  0  0  0  0  0  0  0  0  0  0
   -1.9469    4.0752   -0.1333 H   0  0  0  0  0  0  0  0  0  0  0  0
   -0.9021    5.0683   -1.1469 H   0  0  0  0  0  0  0  0  0  0  0  0
   -0.2234    4.1891    0.2211 H   0  0  0  0  0  0  0  0  0  0  0  0
   -0.6389    2.6835   -1.6745 S   0  0  0  0  0  1  0  0  0  0  0  0
  1  2  2  0  0  0  0
  1  6  1  0  0  0  0
  2  3  1  0  0  0  0
  3 11  1  0  0  0  0
  3  4  2  0  0  0  0
  4 12  1  0  0  0  0
  5  4  1  0  0  0  0
  5 13  1  0  0  0  0
  6  5  2  0  0  0  0
  7  6  1  0  0  0  0
  7  9  2  0  0  0  0
  8  7  2  0  0  0  0
 14 15  1  0  0  0  0
 14 17  1  0  0  0  0
 16 14  1  0  0  0  0
 18 14  1  0  0  0  0
M  END
$$$$
Coordinates from ORCA-job TS_search_opt_without_h_MEP E -990.125027139099
 OpenBabel09152311013D

 18 16  0  0  0  0  0  0  0  0999 V2000
    0.4591   -0.8100   -0.7092 C   0  0  0  0  0  3  0  0  0  0  0  0
    1.6260   -1.0498   -0.5345 N   0  0  0  0  0  0  0  0  0  0  0  0
    2.0810   -1.8094    0.4955 C   0  0  0  0  0  0  0  0  0  0  0  0
    1.1010   -2.2731    1.3515 C   0  0  0  0  0  0  0  0  0  0  0  0
   -0.2534   -2.0525    1.0628 C   0  0  0  0  0  0  0  0  0  0  0  0
   -0.6323   -1.3365   -0.0641 C   0  0  0  0  0  0  0  0  0  0  0  0
   -2.0033   -1.2054   -0.5259 N   0  0  0  0  0  0  0  0  0  0  0  0
   -2.1795   -0.6257   -1.5724 O   0  0  0  0  0  0  0  0  0  0  0  0
   -2.8701   -1.7181    0.1511 O   0  0  0  0  0  0  0  0  0  0  0  0
    3.4177    1.1829   -0.7484 F   0  0  0  0  0 15  0  0  0  0  0  0
    3.1406   -2.0108    0.5945 H   0  0  0  0  0  0  0  0  0  0  0  0
    1.3829   -2.8318    2.2363 H   0  0  0  0  0  0  0  0  0  0  0  0
   -1.0316   -2.4395    1.7141 H   0  0  0  0  0  0  0  0  0  0  0  0
   -0.8743    3.8894   -0.6101 C   0  0  0  0  0  0  0  0  0  0  0  0
   -1.8723    3.8436   -0.1648 H   0  0  0  0  0  0  0  0  0  0  0  0
   -0.8417    4.7985   -1.2251 H   0  0  0  0  0  0  0  0  0  0  0  0
   -0.1492    4.0305    0.1954 H   0  0  0  0  0  0  0  0  0  0  0  0
   -0.5006    2.4178   -1.6467 S   0  0  0  0  0  1  0  0  0  0  0  0
  1  2  2  0  0  0  0
  1  6  1  0  0  0  0
  2  3  1  0  0  0  0
  3 11  1  0  0  0  0
  3  4  2  0  0  0  0
  4 12  1  0  0  0  0
  5  4  1  0  0  0  0
  5 13  1  0  0  0  0
  6  5  2  0  0  0  0
  7  6  1  0  0  0  0
  7  9  2  0  0  0  0
  8  7  2  0  0  0  0
 14 15  1  0  0  0  0
 14 17  1  0  0  0  0
 16 14  1  0  0  0  0
 18 14  1  0  0  0  0
M  END
$$$$
Coordinates from ORCA-job TS_search_opt_without_h_MEP E -990.155854689366
 OpenBabel09152311013D

 18 16  0  0  0  0  0  0  0  0999 V2000
    0.3557   -0.4564   -0.6010 C   0  0  0  0  0  3  0  0  0  0  0  0
    1.5601   -0.7741   -0.4727 N   0  0  0  0  0  0  0  0  0  0  0  0
    1.9921   -1.6867    0.4318 C   0  0  0  0  0  0  0  0  0  0  0  0
    1.0648   -2.2387    1.2961 C   0  0  0  0  0  0  0  0  0  0  0  0
   -0.2875   -2.0206    1.0380 C   0  0  0  0  0  0  0  0  0  0  0  0
   -0.6646   -1.1894   -0.0069 C   0  0  0  0  0  0  0  0  0  0  0  0
   -2.0404   -1.1470   -0.4743 N   0  0  0  0  0  0  0  0  0  0  0  0
   -2.2582   -0.5832   -1.5248 O   0  0  0  0  0  0  0  0  0  0  0  0
   -2.8846   -1.7264    0.1833 O   0  0  0  0  0  0  0  0  0  0  0  0
    3.6045    1.3671   -0.6739 F   0  0  0  0  0 15  0  0  0  0  0  0
    3.0508   -1.9320    0.4808 H   0  0  0  0  0  0  0  0  0  0  0  0
    1.3780   -2.8533    2.1340 H   0  0  0  0  0  0  0  0  0  0  0  0
   -1.0522   -2.4900    1.6472 H   0  0  0  0  0  0  0  0  0  0  0  0
   -0.7977    3.6353   -0.5979 C   0  0  0  0  0  0  0  0  0  0  0  0
   -1.8101    3.6263   -0.1851 H   0  0  0  0  0  0  0  0  0  0  0  0
   -0.7647    4.4855   -1.3023 H   0  0  0  0  0  0  0  0  0  0  0  0
   -0.0899    3.8815    0.1948 H   0  0  0  0  0  0  0  0  0  0  0  0
   -0.3560    2.1021   -1.5671 S   0  0  0  0  0  1  0  0  0  0  0  0
  1  2  2  0  0  0  0
  1  6  1  0  0  0  0
  2  3  1  0  0  0  0
  3 11  1  0  0  0  0
  3  4  2  0  0  0  0
  4 12  1  0  0  0  0
  5  4  1  0  0  0  0
  5 13  1  0  0  0  0
  6  5  2  0  0  0  0
  7  6  1  0  0  0  0
  7  9  2  0  0  0  0
  8  7  2  0  0  0  0
 14 15  1  0  0  0  0
 14 17  1  0  0  0  0
 16 14  1  0  0  0  0
 18 14  1  0  0  0  0
M  END
$$$$
Coordinates from ORCA-job TS_search_opt_without_h_MEP E -990.236043059171
 OpenBabel09152311013D

 18 17  0  0  0  0  0  0  0  0999 V2000
    0.2343   -0.1039   -0.5029 C   0  0  0  0  0  0  0  0  0  0  0  0
    1.4911   -0.4897   -0.4222 N   0  0  0  0  0  0  0  0  0  0  0  0
    1.8929   -1.5097    0.3619 C   0  0  0  0  0  0  0  0  0  0  0  0
    1.0200   -2.1520    1.2256 C   0  0  0  0  0  0  0  0  0  0  0  0
   -0.3260   -1.9307    1.0019 C   0  0  0  0  0  0  0  0  0  0  0  0
   -0.7144   -0.9906    0.0491 C   0  0  0  0  0  0  0  0  0  0  0  0
   -2.0961   -1.0590   -0.4226 N   0  0  0  0  0  0  0  0  0  0  0  0
   -2.3760   -0.4909   -1.4579 O   0  0  0  0  0  0  0  0  0  0  0  0
   -2.8839   -1.7504    0.1986 O   0  0  0  0  0  0  0  0  0  0  0  0
    3.8189    1.5583   -0.5697 F   0  0  0  0  0 15  0  0  0  0  0  0
    2.9447   -1.8004    0.3413 H   0  0  0  0  0  0  0  0  0  0  0  0
    1.3659   -2.8281    2.0020 H   0  0  0  0  0  0  0  0  0  0  0  0
   -1.0747   -2.4835    1.5561 H   0  0  0  0  0  0  0  0  0  0  0  0
   -0.7055    3.3058   -0.5662 C   0  0  0  0  0  0  0  0  0  0  0  0
   -1.7333    3.3298   -0.1963 H   0  0  0  0  0  0  0  0  0  0  0  0
   -0.6624    4.0640   -1.3716 H   0  0  0  0  0  0  0  0  0  0  0  0
   -0.0233    3.6593    0.2061 H   0  0  0  0  0  0  0  0  0  0  0  0
   -0.1721    1.6718   -1.4332 S   0  0  0  0  0  0  0  0  0  0  0  0
  1  2  2  0  0  0  0
  1  6  1  0  0  0  0
  2  3  1  0  0  0  0
  3  4  2  0  0  0  0
  4 12  1  0  0  0  0
  5  4  1  0  0  0  0
  5 13  1  0  0  0  0
  6  5  2  0  0  0  0
  7  6  1  0  0  0  0
  7  9  2  0  0  0  0
  8  7  2  0  0  0  0
 11  3  1  0  0  0  0
 14 15  1  0  0  0  0
 14 17  1  0  0  0  0
 16 14  1  0  0  0  0
 18 14  1  0  0  0  0
 18  1  1  0  0  0  0
M  END
$$$$
Coordinates from ORCA-job TS_search_opt_without_h_MEP E -990.305441988422
 OpenBabel09152311013D

 18 17  0  0  0  0  0  0  0  0999 V2000
    0.2370   -0.1180   -0.6931 C   0  0  0  0  0  0  0  0  0  0  0  0
    1.5271   -0.4184   -0.5498 N   0  0  0  0  0  0  0  0  0  0  0  0
    1.8845   -1.4005    0.2798 C   0  0  0  0  0  0  0  0  0  0  0  0
    0.9817   -2.1495    1.0179 C   0  0  0  0  0  0  0  0  0  0  0  0
   -0.3627   -1.8636    0.8787 C   0  0  0  0  0  0  0  0  0  0  0  0
   -0.7267   -0.8363    0.0222 C   0  0  0  0  0  0  0  0  0  0  0  0
   -2.1677   -0.5660   -0.0712 N   0  0  0  0  0  0  0  0  0  0  0  0
   -2.5555    0.5816   -0.0668 O   0  0  0  0  0  0  0  0  0  0  0  0
   -2.9053   -1.5330   -0.1259 O   0  0  0  0  0  0  0  0  0  0  0  0
    2.8502    2.8333    0.4468 F   0  0  0  0  0 15  0  0  0  0  0  0
    2.9505   -1.5899    0.3582 H   0  0  0  0  0  0  0  0  0  0  0  0
    1.3236   -2.9343    1.6811 H   0  0  0  0  0  0  0  0  0  0  0  0
   -1.1231   -2.4118    1.4231 H   0  0  0  0  0  0  0  0  0  0  0  0
   -0.4095    2.5894   -0.8155 C   0  0  0  0  0  0  0  0  0  0  0  0
   -1.2686    2.4368   -0.1681 H   0  0  0  0  0  0  0  0  0  0  0  0
   -0.6025    3.4272   -1.4883 H   0  0  0  0  0  0  0  0  0  0  0  0
    0.4954    2.7971   -0.2384 H   0  0  0  0  0  0  0  0  0  0  0  0
   -0.1284    1.1559   -1.8906 S   0  0  0  0  0  0  0  0  0  0  0  0
  1  2  2  0  0  0  0
  1  6  1  0  0  0  0
  2  3  1  0  0  0  0
  3 11  1  0  0  0  0
  3  4  2  0  0  0  0
  4 12  1  0  0  0  0
  5  4  1  0  0  0  0
  5 13  1  0  0  0  0
  6  5  2  0  0  0  0
  7  8  2  0  0  0  0
  7  6  1  0  0  0  0
  9  7  2  0  0  0  0
 14 17  1  0  0  0  0
 14 15  1  0  0  0  0
 16 14  1  0  0  0  0
 18 14  1  0  0  0  0
 18  1  1  0  0  0  0
M  END
$$$$
