Coordinates from ORCA-job TS_search_opt_without_h_MEP E -990.268869124156
 OpenBabel09152311013D

 18 17  0  0  0  0  0  0  0  0999 V2000
    0.0108   -1.4119   -2.2851 C   0  0  0  0  0  0  0  0  0  0  0  0
    1.1348   -1.5992   -1.6567 N   0  0  0  0  0  0  0  0  0  0  0  0
    1.2110   -1.6148   -0.3281 C   0  0  0  0  0  0  0  0  0  0  0  0
    0.0942   -1.4342    0.4514 C   0  0  0  0  0  0  0  0  0  0  0  0
   -1.1151   -1.2330   -0.1716 C   0  0  0  0  0  0  0  0  0  0  0  0
   -1.1845   -1.2181   -1.5583 C   0  0  0  0  0  0  0  0  0  0  0  0
   -2.4461   -1.0073   -2.2209 N   0  0  0  0  0  0  0  0  0  0  0  0
   -2.5261   -0.9898   -3.4662 O   0  0  0  0  0  0  0  0  0  0  0  0
   -3.4212   -0.8492   -1.5130 O   0  0  0  0  0  0  0  0  0  0  0  0
    0.0163   -1.4078   -3.6350 F   0  0  0  0  0  0  0  0  0  0  0  0
    2.1898   -1.7783    0.1286 H   0  0  0  0  0  0  0  0  0  0  0  0
    0.1602   -1.4496    1.5168 H   0  0  0  0  0  0  0  0  0  0  0  0
   -2.0193   -1.0863    0.4263 H   0  0  0  0  0  0  0  0  0  0  0  0
    1.6050    3.4917    2.9737 C   0  0  0  0  0  0  0  0  0  0  0  0
    2.5789    3.2210    3.3906 H   0  0  0  0  0  0  0  0  0  0  0  0
    0.8336    3.3240    3.7303 H   0  0  0  0  0  0  0  0  0  0  0  0
    1.6160    4.5515    2.7044 H   0  0  0  0  0  0  0  0  0  0  0  0
    1.2616    2.4913    1.5130 S   0  0  0  0  0  1  0  0  0  0  0  0
  1  2  2  0  0  0  0
  1  6  1  0  0  0  0
  2  3  1  0  0  0  0
  3 11  1  0  0  0  0
  3  4  2  0  0  0  0
  4 12  1  0  0  0  0
  5 13  1  0  0  0  0
  5  4  1  0  0  0  0
  6  5  2  0  0  0  0
  7  6  1  0  0  0  0
  7  9  2  0  0  0  0
  8  7  2  0  0  0  0
 10  1  1  0  0  0  0
 14 15  1  0  0  0  0
 14 16  1  0  0  0  0
 17 14  1  0  0  0  0
 18 14  1  0  0  0  0
M  END
$$$$
Coordinates from ORCA-job TS_search_opt_without_h_MEP E -990.257354977018
 OpenBabel09152311013D

 18 17  0  0  0  0  0  0  0  0999 V2000
    0.3421   -0.6334   -1.7126 C   0  0  0  0  0  0  0  0  0  0  0  0
    1.3321   -1.3774   -1.3347 N   0  0  0  0  0  0  0  0  0  0  0  0
    1.2759   -2.1676   -0.2732 C   0  0  0  0  0  0  0  0  0  0  0  0
    0.1328   -2.2673    0.4895 C   0  0  0  0  0  0  0  0  0  0  0  0
   -1.0018   -1.6218    0.0266 C   0  0  0  0  0  0  0  0  0  0  0  0
   -0.9463   -0.8127   -1.1173 C   0  0  0  0  0  0  0  0  0  0  0  0
   -2.2400   -0.2446   -1.5618 N   0  0  0  0  0  0  0  0  0  0  0  0
   -2.2301    0.5823   -2.4515 O   0  0  0  0  0  0  0  0  0  0  0  0
   -3.2567   -0.6473   -1.0264 O   0  0  0  0  0  0  0  0  0  0  0  0
    0.8663    0.2980   -2.5970 F   0  0  0  0  0  0  0  0  0  0  0  0
    2.2021   -2.6779   -0.0380 H   0  0  0  0  0  0  0  0  0  0  0  0
    0.1280   -2.8380    1.4042 H   0  0  0  0  0  0  0  0  0  0  0  0
   -1.9412   -1.7278    0.5664 H   0  0  0  0  0  0  0  0  0  0  0  0
    1.1133    3.2831    2.0260 C   0  0  0  0  0  0  0  0  0  0  0  0
    1.4200    2.5466    2.7754 H   0  0  0  0  0  0  0  0  0  0  0  0
    0.3802    3.9438    2.5000 H   0  0  0  0  0  0  0  0  0  0  0  0
    1.9931    3.8914    1.7909 H   0  0  0  0  0  0  0  0  0  0  0  0
    0.4302    2.4706    0.5336 S   0  0  0  0  0  1  0  0  0  0  0  0
  1  2  2  0  0  0  0
  1  6  1  0  0  0  0
  2  3  1  0  0  0  0
  3 11  1  0  0  0  0
  3  4  2  0  0  0  0
  4 12  1  0  0  0  0
  5  4  1  0  0  0  0
  5 13  1  0  0  0  0
  6  5  2  0  0  0  0
  7  6  1  0  0  0  0
  7  9  2  0  0  0  0
  8  7  2  0  0  0  0
 10  1  1  0  0  0  0
 14 16  1  0  0  0  0
 14 15  1  0  0  0  0
 17 14  1  0  0  0  0
 18 14  1  0  0  0  0
M  END
$$$$
Coordinates from ORCA-job TS_search_opt_without_h_MEP E -990.131690008066
 OpenBabel09152311013D

 18 16  0  0  0  0  0  0  0  0999 V2000
    0.1777   -0.7547   -1.6783 C   0  0  0  0  0  3  0  0  0  0  0  0
    1.1511   -1.3877   -1.3712 N   0  0  0  0  0  0  0  0  0  0  0  0
    1.2759   -2.1579   -0.2866 C   0  0  0  0  0  0  0  0  0  0  0  0
    0.1384   -2.2625    0.4851 C   0  0  0  0  0  0  0  0  0  0  0  0
   -1.0409   -1.6435    0.0622 C   0  0  0  0  0  0  0  0  0  0  0  0
   -1.0873   -0.8542   -1.0895 C   0  0  0  0  0  0  0  0  0  0  0  0
   -2.3582   -0.2651   -1.5287 N   0  0  0  0  0  0  0  0  0  0  0  0
   -2.3144    0.5632   -2.4102 O   0  0  0  0  0  0  0  0  0  0  0  0
   -3.3692   -0.6558   -0.9853 O   0  0  0  0  0  0  0  0  0  0  0  0
    1.6610    0.4879   -2.7401 F   0  0  0  0  0 15  0  0  0  0  0  0
    2.2398   -2.6047   -0.0945 H   0  0  0  0  0  0  0  0  0  0  0  0
    0.1742   -2.8353    1.4004 H   0  0  0  0  0  0  0  0  0  0  0  0
   -1.9494   -1.7636    0.6475 H   0  0  0  0  0  0  0  0  0  0  0  0
    1.1082    3.2820    2.0187 C   0  0  0  0  0  0  0  0  0  0  0  0
    1.4059    2.5425    2.7683 H   0  0  0  0  0  0  0  0  0  0  0  0
    0.3832    3.9524    2.4904 H   0  0  0  0  0  0  0  0  0  0  0  0
    1.9953    3.8783    1.7810 H   0  0  0  0  0  0  0  0  0  0  0  0
    0.4087    2.4788    0.5306 S   0  0  0  0  0  1  0  0  0  0  0  0
  1  2  2  0  0  0  0
  1  6  1  0  0  0  0
  2  3  1  0  0  0  0
  3 11  1  0  0  0  0
  3  4  2  0  0  0  0
  4 12  1  0  0  0  0
  5  4  1  0  0  0  0
  5 13  1  0  0  0  0
  6  5  2  0  0  0  0
  7  6  1  0  0  0  0
  7  9  2  0  0  0  0
  8  7  2  0  0  0  0
 14 16  1  0  0  0  0
 14 15  1  0  0  0  0
 17 14  1  0  0  0  0
 18 14  1  0  0  0  0
M  END
$$$$
Coordinates from ORCA-job TS_search_opt_without_h_MEP E -990.117212525699
 OpenBabel09152311013D

 18 16  0  0  0  0  0  0  0  0999 V2000
   -0.0211   -0.8417   -1.6689 C   0  0  0  0  0  3  0  0  0  0  0  0
    1.0272   -1.3283   -1.4428 N   0  0  0  0  0  0  0  0  0  0  0  0
    1.2716   -2.0790   -0.3359 C   0  0  0  0  0  0  0  0  0  0  0  0
    0.1516   -2.2421    0.4593 C   0  0  0  0  0  0  0  0  0  0  0  0
   -1.0836   -1.6746    0.1041 C   0  0  0  0  0  0  0  0  0  0  0  0
   -1.2368   -0.9174   -1.0534 C   0  0  0  0  0  0  0  0  0  0  0  0
   -2.4733   -0.2923   -1.4909 N   0  0  0  0  0  0  0  0  0  0  0  0
   -2.3830    0.5389   -2.3663 O   0  0  0  0  0  0  0  0  0  0  0  0
   -3.4919   -0.6556   -0.9519 O   0  0  0  0  0  0  0  0  0  0  0  0
    2.4107    0.5209   -2.6958 F   0  0  0  0  0 15  0  0  0  0  0  0
    2.2557   -2.4930   -0.1662 H   0  0  0  0  0  0  0  0  0  0  0  0
    0.2356   -2.8286    1.3655 H   0  0  0  0  0  0  0  0  0  0  0  0
   -1.9579   -1.8064    0.7355 H   0  0  0  0  0  0  0  0  0  0  0  0
    1.1062    3.2747    2.0026 C   0  0  0  0  0  0  0  0  0  0  0  0
    1.3949    2.5369    2.7574 H   0  0  0  0  0  0  0  0  0  0  0  0
    0.3828    3.9511    2.4688 H   0  0  0  0  0  0  0  0  0  0  0  0
    1.9979    3.8662    1.7702 H   0  0  0  0  0  0  0  0  0  0  0  0
    0.4134    2.4704    0.5088 S   0  0  0  0  0  1  0  0  0  0  0  0
  1  2  2  0  0  0  0
  1  6  1  0  0  0  0
  2  3  1  0  0  0  0
  3 11  1  0  0  0  0
  3  4  2  0  0  0  0
  4 12  1  0  0  0  0
  5  4  1  0  0  0  0
  5 13  1  0  0  0  0
  6  5  2  0  0  0  0
  7  6  1  0  0  0  0
  7  9  2  0  0  0  0
  8  7  2  0  0  0  0
 14 16  1  0  0  0  0
 14 15  1  0  0  0  0
 17 14  1  0  0  0  0
 18 14  1  0  0  0  0
M  END
$$$$
Coordinates from ORCA-job TS_search_opt_without_h_MEP E -990.118148919189
 OpenBabel09152311013D

 18 16  0  0  0  0  0  0  0  0999 V2000
   -0.0575   -0.7170   -1.6032 C   0  0  0  0  0  3  0  0  0  0  0  0
    1.0000   -1.2042   -1.4329 N   0  0  0  0  0  0  0  0  0  0  0  0
    1.2720   -2.0486   -0.4015 C   0  0  0  0  0  0  0  0  0  0  0  0
    0.1665   -2.2921    0.3942 C   0  0  0  0  0  0  0  0  0  0  0  0
   -1.0829   -1.7133    0.1091 C   0  0  0  0  0  0  0  0  0  0  0  0
   -1.2631   -0.8706   -0.9819 C   0  0  0  0  0  0  0  0  0  0  0  0
   -2.5145   -0.2438   -1.3683 N   0  0  0  0  0  0  0  0  0  0  0  0
   -2.4484    0.6469   -2.1856 O   0  0  0  0  0  0  0  0  0  0  0  0
   -3.5220   -0.6671   -0.8527 O   0  0  0  0  0  0  0  0  0  0  0  0
    2.8495    0.4036   -2.3629 F   0  0  0  0  0 15  0  0  0  0  0  0
    2.2587   -2.4747   -0.2861 H   0  0  0  0  0  0  0  0  0  0  0  0
    0.2722   -2.9493    1.2487 H   0  0  0  0  0  0  0  0  0  0  0  0
   -1.9426   -1.9028    0.7464 H   0  0  0  0  0  0  0  0  0  0  0  0
    1.0532    3.2587    1.8956 C   0  0  0  0  0  0  0  0  0  0  0  0
    1.2254    2.5159    2.6806 H   0  0  0  0  0  0  0  0  0  0  0  0
    0.4037    4.0318    2.3192 H   0  0  0  0  0  0  0  0  0  0  0  0
    2.0172    3.7313    1.6804 H   0  0  0  0  0  0  0  0  0  0  0  0
    0.3126    2.4953    0.4010 S   0  0  0  0  0  1  0  0  0  0  0  0
  1  2  2  0  0  0  0
  1  6  1  0  0  0  0
  2  3  1  0  0  0  0
  3 11  1  0  0  0  0
  3  4  2  0  0  0  0
  4 12  1  0  0  0  0
  5  4  1  0  0  0  0
  5 13  1  0  0  0  0
  6  5  2  0  0  0  0
  7  6  1  0  0  0  0
  7  9  2  0  0  0  0
  8  7  2  0  0  0  0
 14 16  1  0  0  0  0
 14 15  1  0  0  0  0
 17 14  1  0  0  0  0
 18 14  1  0  0  0  0
M  END
$$$$
Coordinates from ORCA-job TS_search_opt_without_h_MEP E -990.119860658081
 OpenBabel09152311013D

 18 16  0  0  0  0  0  0  0  0999 V2000
   -0.0663   -0.5954   -1.5052 C   0  0  0  0  0  3  0  0  0  0  0  0
    0.9942   -1.1020   -1.4016 N   0  0  0  0  0  0  0  0  0  0  0  0
    1.2696   -2.0415   -0.4555 C   0  0  0  0  0  0  0  0  0  0  0  0
    0.1762   -2.3481    0.3336 C   0  0  0  0  0  0  0  0  0  0  0  0
   -1.0769   -1.7490    0.1124 C   0  0  0  0  0  0  0  0  0  0  0  0
   -1.2686   -0.8144   -0.8977 C   0  0  0  0  0  0  0  0  0  0  0  0
   -2.5304   -0.1782   -1.2292 N   0  0  0  0  0  0  0  0  0  0  0  0
   -2.4832    0.7812   -1.9658 O   0  0  0  0  0  0  0  0  0  0  0  0
   -3.5294   -0.6683   -0.7566 O   0  0  0  0  0  0  0  0  0  0  0  0
    3.1926    0.3981   -2.0008 F   0  0  0  0  0 15  0  0  0  0  0  0
    2.2536   -2.4855   -0.3976 H   0  0  0  0  0  0  0  0  0  0  0  0
    0.2917   -3.0770    1.1266 H   0  0  0  0  0  0  0  0  0  0  0  0
   -1.9300   -1.9954    0.7392 H   0  0  0  0  0  0  0  0  0  0  0  0
    0.9960    3.2217    1.7608 C   0  0  0  0  0  0  0  0  0  0  0  0
    1.0322    2.4912    2.5746 H   0  0  0  0  0  0  0  0  0  0  0  0
    0.4338    4.0866    2.1284 H   0  0  0  0  0  0  0  0  0  0  0  0
    2.0222    3.5587    1.5820 H   0  0  0  0  0  0  0  0  0  0  0  0
    0.2228    2.5173    0.2524 S   0  0  0  0  0  1  0  0  0  0  0  0
  1  2  2  0  0  0  0
  1  6  1  0  0  0  0
  2  3  1  0  0  0  0
  3 11  1  0  0  0  0
  3  4  2  0  0  0  0
  4 12  1  0  0  0  0
  5  4  1  0  0  0  0
  5 13  1  0  0  0  0
  6  5  2  0  0  0  0
  7  6  1  0  0  0  0
  7  9  2  0  0  0  0
  8  7  2  0  0  0  0
 14 16  1  0  0  0  0
 14 15  1  0  0  0  0
 17 14  1  0  0  0  0
 18 14  1  0  0  0  0
M  END
$$$$
Coordinates from ORCA-job TS_search_opt_without_h_MEP E -990.128133939104
 OpenBabel09152311013D

 18 16  0  0  0  0  0  0  0  0999 V2000
   -0.0155   -0.3186   -1.2471 C   0  0  0  0  0  3  0  0  0  0  0  0
    1.0283   -0.9146   -1.2291 N   0  0  0  0  0  0  0  0  0  0  0  0
    1.2424   -2.0140   -0.4659 C   0  0  0  0  0  0  0  0  0  0  0  0
    0.1590   -2.4001    0.3001 C   0  0  0  0  0  0  0  0  0  0  0  0
   -1.0886   -1.7818    0.1232 C   0  0  0  0  0  0  0  0  0  0  0  0
   -1.2386   -0.7303   -0.7663 C   0  0  0  0  0  0  0  0  0  0  0  0
   -2.5127   -0.1283   -1.1143 N   0  0  0  0  0  0  0  0  0  0  0  0
   -2.4882    0.8478   -1.8333 O   0  0  0  0  0  0  0  0  0  0  0  0
   -3.5151   -0.6679   -0.6977 O   0  0  0  0  0  0  0  0  0  0  0  0
    3.4356    0.4696   -1.8243 F   0  0  0  0  0 15  0  0  0  0  0  0
    2.2103   -2.4976   -0.4802 H   0  0  0  0  0  0  0  0  0  0  0  0
    0.2746   -3.1965    1.0238 H   0  0  0  0  0  0  0  0  0  0  0  0
   -1.9549   -2.0989    0.6955 H   0  0  0  0  0  0  0  0  0  0  0  0
    0.9609    3.1139    1.6073 C   0  0  0  0  0  0  0  0  0  0  0  0
    0.9171    2.4052    2.4387 H   0  0  0  0  0  0  0  0  0  0  0  0
    0.4262    4.0146    1.9362 H   0  0  0  0  0  0  0  0  0  0  0  0
    2.0063    3.4048    1.4657 H   0  0  0  0  0  0  0  0  0  0  0  0
    0.1530    2.4928    0.0677 S   0  0  0  0  0  1  0  0  0  0  0  0
  1  2  2  0  0  0  0
  1  6  1  0  0  0  0
  2  3  1  0  0  0  0
  3  4  2  0  0  0  0
  4 12  1  0  0  0  0
  5  4  1  0  0  0  0
  5 13  1  0  0  0  0
  6  5  2  0  0  0  0
  7  6  1  0  0  0  0
  7  9  2  0  0  0  0
  8  7  2  0  0  0  0
 11  3  1  0  0  0  0
 14 16  1  0  0  0  0
 14 15  1  0  0  0  0
 17 14  1  0  0  0  0
 18 14  1  0  0  0  0
M  END
$$$$
Coordinates from ORCA-job TS_search_opt_without_h_MEP E -990.170893286377
 OpenBabel09152311013D

 18 16  0  0  0  0  0  0  0  0999 V2000
    0.0326   -0.0047   -0.8905 C   0  0  0  0  0  3  0  0  0  0  0  0
    1.0818   -0.7083   -0.9902 N   0  0  0  0  0  0  0  0  0  0  0  0
    1.1964   -1.9427   -0.4707 C   0  0  0  0  0  0  0  0  0  0  0  0
    0.1339   -2.4225    0.2776 C   0  0  0  0  0  0  0  0  0  0  0  0
   -1.0988   -1.7928    0.1232 C   0  0  0  0  0  0  0  0  0  0  0  0
   -1.1950   -0.6299   -0.6291 C   0  0  0  0  0  0  0  0  0  0  0  0
   -2.4841   -0.0920   -1.0314 N   0  0  0  0  0  0  0  0  0  0  0  0
   -2.4831    0.8782   -1.7657 O   0  0  0  0  0  0  0  0  0  0  0  0
   -3.4919   -0.6703   -0.6682 O   0  0  0  0  0  0  0  0  0  0  0  0
    3.6203    0.5327   -1.7776 F   0  0  0  0  0 15  0  0  0  0  0  0
    2.1460   -2.4664   -0.5632 H   0  0  0  0  0  0  0  0  0  0  0  0
    0.2585   -3.2575    0.9545 H   0  0  0  0  0  0  0  0  0  0  0  0
   -1.9839   -2.1617    0.6292 H   0  0  0  0  0  0  0  0  0  0  0  0
    0.9353    2.9633    1.4763 C   0  0  0  0  0  0  0  0  0  0  0  0
    0.8526    2.3177    2.3517 H   0  0  0  0  0  0  0  0  0  0  0  0
    0.3815    3.8855    1.7327 H   0  0  0  0  0  0  0  0  0  0  0  0
    1.9800    3.2672    1.3558 H   0  0  0  0  0  0  0  0  0  0  0  0
    0.1180    2.3042   -0.1144 S   0  0  0  0  0  1  0  0  0  0  0  0
  1  6  1  0  0  0  0
  2  1  2  0  0  0  0
  2  3  1  0  0  0  0
  3  4  2  0  0  0  0
  4 12  1  0  0  0  0
  5  4  1  0  0  0  0
  5 13  1  0  0  0  0
  6  5  2  0  0  0  0
  7  9  2  0  0  0  0
  7  6  1  0  0  0  0
  8  7  2  0  0  0  0
 11  3  1  0  0  0  0
 14 16  1  0  0  0  0
 14 15  1  0  0  0  0
 17 14  1  0  0  0  0
 18 14  1  0  0  0  0
M  END
$$$$
Coordinates from ORCA-job TS_search_opt_without_h_MEP E -990.258827608970
 OpenBabel09152311013D

 18 17  0  0  0  0  0  0  0  0999 V2000
    0.0383    0.2332   -0.5586 C   0  0  0  0  0  0  0  0  0  0  0  0
    1.1304   -0.4873   -0.7280 N   0  0  0  0  0  0  0  0  0  0  0  0
    1.1765   -1.7933   -0.4344 C   0  0  0  0  0  0  0  0  0  0  0  0
    0.1250   -2.4056    0.2310 C   0  0  0  0  0  0  0  0  0  0  0  0
   -1.0991   -1.7654    0.1458 C   0  0  0  0  0  0  0  0  0  0  0  0
   -1.1661   -0.4967   -0.4152 C   0  0  0  0  0  0  0  0  0  0  0  0
   -2.4717   -0.0156   -0.8617 N   0  0  0  0  0  0  0  0  0  0  0  0
   -2.5011    0.9663   -1.5792 O   0  0  0  0  0  0  0  0  0  0  0  0
   -3.4608   -0.6650   -0.5691 O   0  0  0  0  0  0  0  0  0  0  0  0
    3.9576    0.5992   -1.5468 F   0  0  0  0  0 15  0  0  0  0  0  0
    2.0914   -2.3378   -0.6653 H   0  0  0  0  0  0  0  0  0  0  0  0
    0.2467   -3.3396    0.7651 H   0  0  0  0  0  0  0  0  0  0  0  0
   -2.0031   -2.2197    0.5332 H   0  0  0  0  0  0  0  0  0  0  0  0
    0.8652    2.7573    1.2635 C   0  0  0  0  0  0  0  0  0  0  0  0
    0.6845    2.1653    2.1612 H   0  0  0  0  0  0  0  0  0  0  0  0
    0.3513    3.7187    1.4168 H   0  0  0  0  0  0  0  0  0  0  0  0
    1.9313    2.9877    1.1820 H   0  0  0  0  0  0  0  0  0  0  0  0
    0.1038    2.0983   -0.3402 S   0  0  0  0  0  0  0  0  0  0  0  0
  1  6  1  0  0  0  0
  1 18  1  0  0  0  0
  2  1  2  0  0  0  0
  2  3  1  0  0  0  0
  3  4  2  0  0  0  0
  4 12  1  0  0  0  0
  5  4  1  0  0  0  0
  5 13  1  0  0  0  0
  6  5  2  0  0  0  0
  7  9  2  0  0  0  0
  7  6  1  0  0  0  0
  8  7  2  0  0  0  0
 11  3  1  0  0  0  0
 14 16  1  0  0  0  0
 14 15  1  0  0  0  0
 17 14  1  0  0  0  0
 18 14  1  0  0  0  0
M  END
$$$$
Coordinates from ORCA-job TS_search_opt_without_h_MEP E -990.305510871160
 OpenBabel09152311013D

 18 17  0  0  0  0  0  0  0  0999 V2000
    0.1560    0.1538   -0.7089 C   0  0  0  0  0  0  0  0  0  0  0  0
    1.2372   -0.5792   -0.9712 N   0  0  0  0  0  0  0  0  0  0  0  0
    1.2144   -1.8919   -0.7329 C   0  0  0  0  0  0  0  0  0  0  0  0
    0.1136   -2.5609   -0.2214 C   0  0  0  0  0  0  0  0  0  0  0  0
   -1.0231   -1.8241    0.0492 C   0  0  0  0  0  0  0  0  0  0  0  0
   -0.9899   -0.4595   -0.1921 C   0  0  0  0  0  0  0  0  0  0  0  0
   -2.2208    0.2742    0.1317 N   0  0  0  0  0  0  0  0  0  0  0  0
   -2.1412    1.3384    0.7051 O   0  0  0  0  0  0  0  0  0  0  0  0
   -3.2725   -0.2525   -0.1819 O   0  0  0  0  0  0  0  0  0  0  0  0
    3.7260    1.1840    1.0325 F   0  0  0  0  0 15  0  0  0  0  0  0
    2.1291   -2.4305   -0.9597 H   0  0  0  0  0  0  0  0  0  0  0  0
    0.1474   -3.6283   -0.0421 H   0  0  0  0  0  0  0  0  0  0  0  0
   -1.9208   -2.2833    0.4473 H   0  0  0  0  0  0  0  0  0  0  0  0
    0.5882    2.6397    0.4728 C   0  0  0  0  0  0  0  0  0  0  0  0
   -0.2471    2.4880    1.1508 H   0  0  0  0  0  0  0  0  0  0  0  0
    0.7119    3.7068    0.2777 H   0  0  0  0  0  0  0  0  0  0  0  0
    1.5185    2.2433    0.8878 H   0  0  0  0  0  0  0  0  0  0  0  0
    0.2732    1.8820   -1.1447 S   0  0  0  0  0  0  0  0  0  0  0  0
  1  6  1  0  0  0  0
  2  3  1  0  0  0  0
  2  1  2  0  0  0  0
  3  4  2  0  0  0  0
  4 12  1  0  0  0  0
  4  5  1  0  0  0  0
  5 13  1  0  0  0  0
  6  5  2  0  0  0  0
  6  7  1  0  0  0  0
  7  8  2  0  0  0  0
  9  7  2  0  0  0  0
 11  3  1  0  0  0  0
 14 17  1  0  0  0  0
 14 15  1  0  0  0  0
 16 14  1  0  0  0  0
 18  1  1  0  0  0  0
 18 14  1  0  0  0  0
M  END
$$$$
