Coordinates from ORCA-job TS_search_opt_without_h_MEP E -990.268341507574
 OpenBabel09152311013D

 18 17  0  0  0  0  0  0  0  0999 V2000
   -0.1469    1.7438   -1.7480 C   0  0  0  0  0  0  0  0  0  0  0  0
    0.9733    1.5645   -1.1163 N   0  0  0  0  0  0  0  0  0  0  0  0
    1.0399    1.5787    0.2148 C   0  0  0  0  0  0  0  0  0  0  0  0
   -0.0699    1.7811    1.0050 C   0  0  0  0  0  0  0  0  0  0  0  0
   -1.2733    1.9741    0.3583 C   0  0  0  0  0  0  0  0  0  0  0  0
   -1.3416    1.9594   -1.0265 C   0  0  0  0  0  0  0  0  0  0  0  0
   -2.6017    2.1625   -1.6943 N   0  0  0  0  0  0  0  0  0  0  0  0
   -2.6808    2.1537   -2.9398 O   0  0  0  0  0  0  0  0  0  0  0  0
   -3.5761    2.3411   -0.9902 O   0  0  0  0  0  0  0  0  0  0  0  0
   -0.1405    1.7187   -3.0977 F   0  0  0  0  0  0  0  0  0  0  0  0
    2.0242    1.4286    0.6447 H   0  0  0  0  0  0  0  0  0  0  0  0
   -0.0042    1.7878    2.0849 H   0  0  0  0  0  0  0  0  0  0  0  0
   -2.1830    2.1388    0.9214 H   0  0  0  0  0  0  0  0  0  0  0  0
    2.0322   -4.9713    1.5569 C   0  0  0  0  0  0  0  0  0  0  0  0
    2.4371   -5.7845    0.9480 H   0  0  0  0  0  0  0  0  0  0  0  0
    1.1634   -5.3383    2.1104 H   0  0  0  0  0  0  0  0  0  0  0  0
    2.7968   -4.6468    2.2682 H   0  0  0  0  0  0  0  0  0  0  0  0
    1.5512   -3.5919    0.5001 S   0  0  0  0  0  1  0  0  0  0  0  0
  1  2  2  0  0  0  0
  1  6  1  0  0  0  0
  2  3  1  0  0  0  0
  3 11  1  0  0  0  0
  3  4  2  0  0  0  0
  4 12  1  0  0  0  0
  5 13  1  0  0  0  0
  5  4  1  0  0  0  0
  6  5  2  0  0  0  0
  7  6  1  0  0  0  0
  7  9  2  0  0  0  0
  8  7  2  0  0  0  0
 10  1  1  0  0  0  0
 14 16  1  0  0  0  0
 14 17  1  0  0  0  0
 15 14  1  0  0  0  0
 18 14  1  0  0  0  0
M  END
$$$$
Coordinates from ORCA-job TS_search_opt_without_h_MEP E -990.274747599399
 OpenBabel09152311013D

 18 17  0  0  0  0  0  0  0  0999 V2000
    0.1139    1.0862   -1.3451 C   0  0  0  0  0  0  0  0  0  0  0  0
    1.2403    1.2493   -0.7085 N   0  0  0  0  0  0  0  0  0  0  0  0
    1.1975    1.8132    0.5051 C   0  0  0  0  0  0  0  0  0  0  0  0
    0.0244    2.2311    1.1071 C   0  0  0  0  0  0  0  0  0  0  0  0
   -1.1646    2.0582    0.4195 C   0  0  0  0  0  0  0  0  0  0  0  0
   -1.1244    1.4733   -0.8374 C   0  0  0  0  0  0  0  0  0  0  0  0
   -2.3804    1.2952   -1.5595 N   0  0  0  0  0  0  0  0  0  0  0  0
   -2.3388    0.9025   -2.7146 O   0  0  0  0  0  0  0  0  0  0  0  0
   -3.4095    1.5529   -0.9747 O   0  0  0  0  0  0  0  0  0  0  0  0
    0.2175    0.5088   -2.5404 F   0  0  0  0  0  0  0  0  0  0  0  0
    2.1531    1.9321    1.0044 H   0  0  0  0  0  0  0  0  0  0  0  0
    0.0377    2.6849    2.0891 H   0  0  0  0  0  0  0  0  0  0  0  0
   -2.1145    2.3719    0.8305 H   0  0  0  0  0  0  0  0  0  0  0  0
    1.5666   -4.3404    0.9656 C   0  0  0  0  0  0  0  0  0  0  0  0
    1.7079   -4.9026    0.0378 H   0  0  0  0  0  0  0  0  0  0  0  0
    0.9943   -4.9785    1.6457 H   0  0  0  0  0  0  0  0  0  0  0  0
    2.5554   -4.1935    1.4102 H   0  0  0  0  0  0  0  0  0  0  0  0
    0.7235   -2.7447    0.6651 S   0  0  0  0  0  1  0  0  0  0  0  0
  1  6  2  0  0  0  0
  1  2  1  0  0  0  0
  2  3  2  0  0  0  0
  3 11  1  0  0  0  0
  3  4  1  0  0  0  0
  4 12  1  0  0  0  0
  5 13  1  0  0  0  0
  5  4  2  0  0  0  0
  6  5  1  0  0  0  0
  7  9  2  0  0  0  0
  7  6  1  0  0  0  0
  8  7  2  0  0  0  0
 10  1  1  0  0  0  0
 14 17  1  0  0  0  0
 14 16  1  0  0  0  0
 15 14  1  0  0  0  0
 18 14  1  0  0  0  0
M  END
$$$$
Coordinates from ORCA-job TS_search_opt_without_h_MEP E -990.276090883194
 OpenBabel09152311013D

 18 17  0  0  0  0  0  0  0  0999 V2000
    0.4034    0.6561   -0.9549 C   0  0  0  0  0  0  0  0  0  0  0  0
    1.4718    1.0632   -0.3261 N   0  0  0  0  0  0  0  0  0  0  0  0
    1.3124    1.9408    0.6731 C   0  0  0  0  0  0  0  0  0  0  0  0
    0.0877    2.4764    1.0269 C   0  0  0  0  0  0  0  0  0  0  0  0
   -1.0418    2.0254    0.3633 C   0  0  0  0  0  0  0  0  0  0  0  0
   -0.8862    1.0731   -0.6357 C   0  0  0  0  0  0  0  0  0  0  0  0
   -2.0841    0.5306   -1.2604 N   0  0  0  0  0  0  0  0  0  0  0  0
   -1.9541   -0.2436   -2.2060 O   0  0  0  0  0  0  0  0  0  0  0  0
   -3.1595    0.8545   -0.8131 O   0  0  0  0  0  0  0  0  0  0  0  0
    0.6252   -0.1772   -1.9663 F   0  0  0  0  0  0  0  0  0  0  0  0
    2.2145    2.2193    1.2090 H   0  0  0  0  0  0  0  0  0  0  0  0
    0.0123    3.2178    1.8132 H   0  0  0  0  0  0  0  0  0  0  0  0
   -2.0295    2.3880    0.6114 H   0  0  0  0  0  0  0  0  0  0  0  0
    1.0888   -3.6935    0.4720 C   0  0  0  0  0  0  0  0  0  0  0  0
    1.0384   -4.0503   -0.5619 H   0  0  0  0  0  0  0  0  0  0  0  0
    0.9354   -4.5617    1.1207 H   0  0  0  0  0  0  0  0  0  0  0  0
    2.1110   -3.3396    0.6421 H   0  0  0  0  0  0  0  0  0  0  0  0
   -0.1457   -2.3792    0.7926 S   0  0  0  0  0  1  0  0  0  0  0  0
  1  6  2  0  0  0  0
  1  2  1  0  0  0  0
  2  3  2  0  0  0  0
  3  4  1  0  0  0  0
  3 11  1  0  0  0  0
  4 12  1  0  0  0  0
  5 13  1  0  0  0  0
  5  4  2  0  0  0  0
  6  5  1  0  0  0  0
  7  9  2  0  0  0  0
  7  6  1  0  0  0  0
  8  7  2  0  0  0  0
 10  1  1  0  0  0  0
 14 17  1  0  0  0  0
 14 18  1  0  0  0  0
 14 16  1  0  0  0  0
 15 14  1  0  0  0  0
M  END
$$$$
Coordinates from ORCA-job TS_search_opt_without_h_MEP E -990.267467206290
 OpenBabel09152311013D

 18 17  0  0  0  0  0  0  0  0999 V2000
    0.4131    0.3243   -0.7381 C   0  0  0  0  0  0  0  0  0  0  0  0
    1.4802    0.7837   -0.1267 N   0  0  0  0  0  0  0  0  0  0  0  0
    1.3279    1.7764    0.7514 C   0  0  0  0  0  0  0  0  0  0  0  0
    0.1119    2.3861    1.0223 C   0  0  0  0  0  0  0  0  0  0  0  0
   -1.0076    1.9158    0.3623 C   0  0  0  0  0  0  0  0  0  0  0  0
   -0.8674    0.8714   -0.5398 C   0  0  0  0  0  0  0  0  0  0  0  0
   -2.0538    0.3789   -1.2053 N   0  0  0  0  0  0  0  0  0  0  0  0
   -1.9347   -0.4236   -2.1140 O   0  0  0  0  0  0  0  0  0  0  0  0
   -3.1381    0.7922   -0.8224 O   0  0  0  0  0  0  0  0  0  0  0  0
    0.6802   -0.4364   -1.8044 F   0  0  0  0  0  0  0  0  0  0  0  0
    2.2372    2.1320    1.2238 H   0  0  0  0  0  0  0  0  0  0  0  0
    0.0541    3.2359    1.6913 H   0  0  0  0  0  0  0  0  0  0  0  0
   -1.9812    2.3687    0.5020 H   0  0  0  0  0  0  0  0  0  0  0  0
    1.0207   -3.3083    0.3275 C   0  0  0  0  0  0  0  0  0  0  0  0
    0.9478   -3.6876   -0.6980 H   0  0  0  0  0  0  0  0  0  0  0  0
    0.8105   -4.1394    1.0027 H   0  0  0  0  0  0  0  0  0  0  0  0
    2.0608   -3.0055    0.4936 H   0  0  0  0  0  0  0  0  0  0  0  0
   -0.1616   -1.9645    0.6721 S   0  0  0  0  0  1  0  0  0  0  0  0
  1  6  2  0  0  0  0
  1  2  1  0  0  0  0
  2  3  2  0  0  0  0
  3  4  1  0  0  0  0
  3 11  1  0  0  0  0
  4 12  1  0  0  0  0
  5 13  1  0  0  0  0
  5  4  2  0  0  0  0
  6  5  1  0  0  0  0
  7  9  2  0  0  0  0
  7  6  1  0  0  0  0
  8  7  2  0  0  0  0
 10  1  1  0  0  0  0
 14 17  1  0  0  0  0
 14 18  1  0  0  0  0
 14 16  1  0  0  0  0
 15 14  1  0  0  0  0
M  END
$$$$
Coordinates from ORCA-job TS_search_opt_without_h_MEP E -990.262445140395
 OpenBabel09152311013D

 18 17  0  0  0  0  0  0  0  0999 V2000
    0.3906    0.1927   -0.6491 C   0  0  0  0  0  0  0  0  0  0  0  0
    1.4786    0.7376   -0.0810 N   0  0  0  0  0  0  0  0  0  0  0  0
    1.3266    1.7518    0.7512 C   0  0  0  0  0  0  0  0  0  0  0  0
    0.1051    2.3742    1.0278 C   0  0  0  0  0  0  0  0  0  0  0  0
   -1.0068    1.9049    0.3654 C   0  0  0  0  0  0  0  0  0  0  0  0
   -0.8788    0.8376   -0.5213 C   0  0  0  0  0  0  0  0  0  0  0  0
   -2.0481    0.3730   -1.1911 N   0  0  0  0  0  0  0  0  0  0  0  0
   -1.9393   -0.4334   -2.1065 O   0  0  0  0  0  0  0  0  0  0  0  0
   -3.1446    0.8021   -0.8301 O   0  0  0  0  0  0  0  0  0  0  0  0
    0.6941   -0.4385   -1.8120 F   0  0  0  0  0  0  0  0  0  0  0  0
    2.2382    2.1358    1.2018 H   0  0  0  0  0  0  0  0  0  0  0  0
    0.0560    3.2363    1.6808 H   0  0  0  0  0  0  0  0  0  0  0  0
   -1.9757    2.3746    0.4863 H   0  0  0  0  0  0  0  0  0  0  0  0
    1.0248   -3.2613    0.3034 C   0  0  0  0  0  0  0  0  0  0  0  0
    0.9472   -3.6710   -0.7081 H   0  0  0  0  0  0  0  0  0  0  0  0
    0.7681   -4.0641    1.0018 H   0  0  0  0  0  0  0  0  0  0  0  0
    2.0702   -2.9960    0.4869 H   0  0  0  0  0  0  0  0  0  0  0  0
   -0.1062   -1.8561    0.5938 S   0  0  0  0  0  1  0  0  0  0  0  0
  1  6  2  0  0  0  0
  1  2  1  0  0  0  0
  2  3  2  0  0  0  0
  3  4  1  0  0  0  0
  3 11  1  0  0  0  0
  4 12  1  0  0  0  0
  5 13  1  0  0  0  0
  5  4  2  0  0  0  0
  6  5  1  0  0  0  0
  7  9  2  0  0  0  0
  7  6  1  0  0  0  0
  8  7  2  0  0  0  0
 10  1  1  0  0  0  0
 14 17  1  0  0  0  0
 14 18  1  0  0  0  0
 14 16  1  0  0  0  0
 15 14  1  0  0  0  0
M  END
$$$$
Coordinates from ORCA-job TS_search_opt_without_h_MEP E -990.268016634081
 OpenBabel09152311013D

 18 18  0  0  1  0  0  0  0  0999 V2000
    0.3716    0.0760   -0.5783 C   0  0  1  0  0  0  0  0  0  0  0  0
    1.4846    0.7021   -0.0550 N   0  0  0  0  0  0  0  0  0  0  0  0
    1.3285    1.7332    0.7531 C   0  0  0  0  0  0  0  0  0  0  0  0
    0.0946    2.3667    1.0232 C   0  0  0  0  0  0  0  0  0  0  0  0
   -1.0023    1.8984    0.3729 C   0  0  0  0  0  0  0  0  0  0  0  0
   -0.8890    0.8106   -0.5158 C   0  0  2  0  0  3  0  0  0  0  0  0
   -2.0393    0.3704   -1.1787 N   0  0  0  0  0  0  0  0  0  0  0  0
   -1.9428   -0.4421   -2.1023 O   0  0  0  0  0  0  0  0  0  0  0  0
   -3.1489    0.8125   -0.8365 O   0  0  0  0  0  0  0  0  0  0  0  0
    0.7039   -0.4350   -1.8131 F   0  0  0  0  0  0  0  0  0  0  0  0
    2.2372    2.1380    1.1848 H   0  0  0  0  0  0  0  0  0  0  0  0
    0.0565    3.2382    1.6785 H   0  0  0  0  0  0  0  0  0  0  0  0
   -1.9720    2.3772    0.4779 H   0  0  0  0  0  0  0  0  0  0  0  0
    1.0297   -3.2233    0.2841 C   0  0  0  0  0  0  0  0  0  0  0  0
    0.9461   -3.6563   -0.7148 H   0  0  0  0  0  0  0  0  0  0  0  0
    0.7417   -4.0089    0.9983 H   0  0  0  0  0  0  0  0  0  0  0  0
    2.0756   -2.9854    0.4838 H   0  0  0  0  0  0  0  0  0  0  0  0
   -0.0756   -1.7721    0.5378 S   0  0  0  0  0  0  0  0  0  0  0  0
  1 10  1  6  0  0  0
  1  6  1  0  0  0  0
  1  2  1  0  0  0  0
  1 18  1  0  0  0  0
  2  3  2  0  0  0  0
  3  4  1  0  0  0  0
  3 11  1  0  0  0  0
  4 12  1  0  0  0  0
  5 13  1  0  0  0  0
  5  4  2  0  0  0  0
  6  7  1  1  0  0  0
  6  5  1  0  0  0  0
  7  9  2  0  0  0  0
  8  7  2  0  0  0  0
 14 17  1  0  0  0  0
 14 18  1  0  0  0  0
 14 16  1  0  0  0  0
 15 14  1  0  0  0  0
M  END
$$$$
Coordinates from ORCA-job TS_search_opt_without_h_MEP E -990.274023528292
 OpenBabel09152311013D

 18 17  0  0  0  0  0  0  0  0999 V2000
    0.2003   -0.1523   -0.0635 C   0  0  0  0  0  0  0  0  0  0  0  0
    1.3262    0.3969    0.3901 N   0  0  0  0  0  0  0  0  0  0  0  0
    1.3168    1.6575    0.8142 C   0  0  0  0  0  0  0  0  0  0  0  0
    0.1552    2.4186    0.9294 C   0  0  0  0  0  0  0  0  0  0  0  0
   -0.9772    1.9285    0.3126 C   0  0  0  0  0  0  0  0  0  0  0  0
   -0.9183    0.6816   -0.2983 C   0  0  0  0  0  0  0  0  0  0  0  0
   -2.0962    0.2869   -1.0689 N   0  0  0  0  0  0  0  0  0  0  0  0
   -1.9780   -0.4872   -2.0004 O   0  0  0  0  0  0  0  0  0  0  0  0
   -3.1661    0.8042   -0.7784 O   0  0  0  0  0  0  0  0  0  0  0  0
    0.9877   -0.4229   -2.2692 F   0  0  0  0  0 15  0  0  0  0  0  0
    2.2665    2.0684    1.1498 H   0  0  0  0  0  0  0  0  0  0  0  0
    0.1416    3.3524    1.4789 H   0  0  0  0  0  0  0  0  0  0  0  0
   -1.9109    2.4822    0.3070 H   0  0  0  0  0  0  0  0  0  0  0  0
    1.0549   -3.0757    0.1869 C   0  0  0  0  0  0  0  0  0  0  0  0
    1.0545   -3.5402   -0.8002 H   0  0  0  0  0  0  0  0  0  0  0  0
    0.7348   -3.8277    0.9171 H   0  0  0  0  0  0  0  0  0  0  0  0
    2.0562   -2.7491    0.4672 H   0  0  0  0  0  0  0  0  0  0  0  0
   -0.2481   -1.8221    0.3258 S   0  0  0  0  0  0  0  0  0  0  0  0
  1 18  1  0  0  0  0
  1  2  1  0  0  0  0
  2  3  2  0  0  0  0
  3  4  1  0  0  0  0
  3 11  1  0  0  0  0
  4 12  1  0  0  0  0
  5  4  2  0  0  0  0
  6  1  2  0  0  0  0
  6  5  1  0  0  0  0
  7  9  2  0  0  0  0
  7  6  1  0  0  0  0
  8  7  2  0  0  0  0
 13  5  1  0  0  0  0
 14 18  1  0  0  0  0
 14 17  1  0  0  0  0
 14 16  1  0  0  0  0
 15 14  1  0  0  0  0
M  END
$$$$
Coordinates from ORCA-job TS_search_opt_without_h_MEP E -990.301706714772
 OpenBabel09152311013D

 18 17  0  0  0  0  0  0  0  0999 V2000
   -0.1071   -0.3731    0.3379 C   0  0  0  0  0  0  0  0  0  0  0  0
    1.0481    0.0375    0.8437 N   0  0  0  0  0  0  0  0  0  0  0  0
    1.2552    1.3531    0.9972 C   0  0  0  0  0  0  0  0  0  0  0  0
    0.2891    2.3231    0.7778 C   0  0  0  0  0  0  0  0  0  0  0  0
   -0.9234    1.9133    0.2433 C   0  0  0  0  0  0  0  0  0  0  0  0
   -1.0745    0.5700   -0.0390 C   0  0  0  0  0  0  0  0  0  0  0  0
   -2.2276    0.1939   -0.8621 N   0  0  0  0  0  0  0  0  0  0  0  0
   -1.9993   -0.4189   -1.8883 O   0  0  0  0  0  0  0  0  0  0  0  0
   -3.3311    0.5593   -0.5166 O   0  0  0  0  0  0  0  0  0  0  0  0
    1.5323    0.8380   -3.9612 F   0  0  0  0  0 15  0  0  0  0  0  0
    2.2533    1.6421    1.3141 H   0  0  0  0  0  0  0  0  0  0  0  0
    0.4900    3.3722    0.9676 H   0  0  0  0  0  0  0  0  0  0  0  0
   -1.7116    2.6184   -0.0006 H   0  0  0  0  0  0  0  0  0  0  0  0
    1.0329   -2.9924    0.3623 C   0  0  0  0  0  0  0  0  0  0  0  0
    1.2738   -3.4319   -0.6064 H   0  0  0  0  0  0  0  0  0  0  0  0
    0.8956   -3.7863    1.0979 H   0  0  0  0  0  0  0  0  0  0  0  0
    1.8329   -2.3291    0.6881 H   0  0  0  0  0  0  0  0  0  0  0  0
   -0.5284   -2.0891    0.2443 S   0  0  0  0  0  0  0  0  0  0  0  0
  1  2  1  0  0  0  0
  2  3  2  0  0  0  0
  3 11  1  0  0  0  0
  4 12  1  0  0  0  0
  4  3  1  0  0  0  0
  5  4  2  0  0  0  0
  6  5  1  0  0  0  0
  6  1  2  0  0  0  0
  7  9  2  0  0  0  0
  7  6  1  0  0  0  0
  8  7  2  0  0  0  0
 13  5  1  0  0  0  0
 14 17  1  0  0  0  0
 14 16  1  0  0  0  0
 15 14  1  0  0  0  0
 18  1  1  0  0  0  0
 18 14  1  0  0  0  0
M  END
$$$$
Coordinates from ORCA-job TS_search_opt_without_h_MEP E -990.301707612750
 OpenBabel09152311013D

 18 17  0  0  0  0  0  0  0  0999 V2000
   -0.3315   -0.3967    0.4647 C   0  0  0  0  0  0  0  0  0  0  0  0
    0.8842    0.0190    0.7992 N   0  0  0  0  0  0  0  0  0  0  0  0
    1.1676    1.3177    0.7690 C   0  0  0  0  0  0  0  0  0  0  0  0
    0.2378    2.2949    0.4515 C   0  0  0  0  0  0  0  0  0  0  0  0
   -1.0543    1.8914    0.1555 C   0  0  0  0  0  0  0  0  0  0  0  0
   -1.3209    0.5327    0.1482 C   0  0  0  0  0  0  0  0  0  0  0  0
   -2.6735    0.0997   -0.2455 N   0  0  0  0  0  0  0  0  0  0  0  0
   -2.7938   -0.5210   -1.2804 O   0  0  0  0  0  0  0  0  0  0  0  0
   -3.5968    0.4115    0.4807 O   0  0  0  0  0  0  0  0  0  0  0  0
    4.2093    0.1576   -3.2059 F   0  0  0  0  0 15  0  0  0  0  0  0
    2.1926    1.5767    1.0154 H   0  0  0  0  0  0  0  0  0  0  0  0
    0.5261    3.3379    0.4326 H   0  0  0  0  0  0  0  0  0  0  0  0
   -1.8287    2.6078   -0.0966 H   0  0  0  0  0  0  0  0  0  0  0  0
    1.0086   -2.7167   -0.0284 C   0  0  0  0  0  0  0  0  0  0  0  0
    1.0349   -2.8610   -1.1082 H   0  0  0  0  0  0  0  0  0  0  0  0
    1.2375   -3.6462    0.4905 H   0  0  0  0  0  0  0  0  0  0  0  0
    1.7315   -1.9594    0.2672 H   0  0  0  0  0  0  0  0  0  0  0  0
   -0.6306   -2.1458    0.4905 S   0  0  0  0  0  0  0  0  0  0  0  0
  1 18  1  0  0  0  0
  1  2  1  0  0  0  0
  3  2  2  0  0  0  0
  3 11  1  0  0  0  0
  4  3  1  0  0  0  0
  5  4  2  0  0  0  0
  6  5  1  0  0  0  0
  6  1  2  0  0  0  0
  7  6  1  0  0  0  0
  7  9  2  0  0  0  0
  8  7  2  0  0  0  0
 12  4  1  0  0  0  0
 13  5  1  0  0  0  0
 14 17  1  0  0  0  0
 14 16  1  0  0  0  0
 14 18  1  0  0  0  0
 15 14  1  0  0  0  0
M  END
$$$$
Coordinates from ORCA-job TS_search_opt_without_h_MEP E -990.305453006312
 OpenBabel09152311013D

 18 17  0  0  0  0  0  0  0  0999 V2000
    0.1767   -0.1981    0.6930 C   0  0  0  0  0  0  0  0  0  0  0  0
    1.2578    0.5283    0.9742 N   0  0  0  0  0  0  0  0  0  0  0  0
    1.2160    1.8536    0.8232 C   0  0  0  0  0  0  0  0  0  0  0  0
    0.0953    2.5423    0.3860 C   0  0  0  0  0  0  0  0  0  0  0  0
   -1.0416    1.8119    0.0977 C   0  0  0  0  0  0  0  0  0  0  0  0
   -0.9888    0.4348    0.2481 C   0  0  0  0  0  0  0  0  0  0  0  0
   -2.2212   -0.2901   -0.0906 N   0  0  0  0  0  0  0  0  0  0  0  0
   -2.1471   -1.3135   -0.7346 O   0  0  0  0  0  0  0  0  0  0  0  0
   -3.2691    0.2031    0.2847 O   0  0  0  0  0  0  0  0  0  0  0  0
    3.7081   -1.0719   -1.2065 F   0  0  0  0  0 15  0  0  0  0  0  0
    2.1316    2.3865    1.0606 H   0  0  0  0  0  0  0  0  0  0  0  0
    0.1140    3.6195    0.2763 H   0  0  0  0  0  0  0  0  0  0  0  0
   -1.9541    2.2861   -0.2455 H   0  0  0  0  0  0  0  0  0  0  0  0
    0.6003   -2.5966   -0.6605 C   0  0  0  0  0  0  0  0  0  0  0  0
   -0.2547   -2.4102   -1.3050 H   0  0  0  0  0  0  0  0  0  0  0  0
    0.7394   -3.6727   -0.5393 H   0  0  0  0  0  0  0  0  0  0  0  0
    1.5153   -2.1633   -1.0732 H   0  0  0  0  0  0  0  0  0  0  0  0
    0.3222   -1.9498    1.0113 S   0  0  0  0  0  0  0  0  0  0  0  0
  1  2  1  0  0  0  0
  1 18  1  0  0  0  0
  3  2  2  0  0  0  0
  3 11  1  0  0  0  0
  4  3  1  0  0  0  0
  5  6  1  0  0  0  0
  5  4  2  0  0  0  0
  6  1  2  0  0  0  0
  7  6  1  0  0  0  0
  7  9  2  0  0  0  0
  8  7  2  0  0  0  0
 12  4  1  0  0  0  0
 13  5  1  0  0  0  0
 14 16  1  0  0  0  0
 14 18  1  0  0  0  0
 15 14  1  0  0  0  0
 17 14  1  0  0  0  0
M  END
$$$$
