Coordinates from ORCA-job TS_search_opt_without_h_MEP E -990.259703952994
 OpenBabel09152311013D

 18 17  0  0  0  0  0  0  0  0999 V2000
    2.3819    1.3256   -0.3358 C   0  0  0  0  0  0  0  0  0  0  0  0
    3.5064    1.1303    0.2779 N   0  0  0  0  0  0  0  0  0  0  0  0
    3.5788    1.1206    1.6138 C   0  0  0  0  0  0  0  0  0  0  0  0
    2.4755    1.3130    2.4139 C   0  0  0  0  0  0  0  0  0  0  0  0
    1.2795    1.5205    1.7577 C   0  0  0  0  0  0  0  0  0  0  0  0
    1.1967    1.5322    0.4037 C   0  0  0  0  0  0  0  0  0  0  0  0
   -0.0703    1.7530   -0.2452 N   0  0  0  0  0  0  0  0  0  0  0  0
   -0.1641    1.7682   -1.4896 O   0  0  0  0  0  0  0  0  0  0  0  0
   -1.1152    1.9358    0.4379 O   0  0  0  0  0  0  0  0  0  0  0  0
    2.3724    1.3262   -1.6857 F   0  0  0  0  0  0  0  0  0  0  0  0
    4.5638    0.9513    2.0345 H   0  0  0  0  0  0  0  0  0  0  0  0
    2.5412    1.3022    3.4935 H   0  0  0  0  0  0  0  0  0  0  0  0
    0.3616    1.6807    2.1996 H   0  0  0  0  0  0  0  0  0  0  0  0
   -4.6934   -3.8112   -2.1748 C   0  0  0  0  0  0  0  0  0  0  0  0
   -4.6095   -4.5756   -2.9523 H   0  0  0  0  0  0  0  0  0  0  0  0
   -5.5853   -3.2072   -2.3627 H   0  0  0  0  0  0  0  0  0  0  0  0
   -4.7935   -4.3034   -1.2035 H   0  0  0  0  0  0  0  0  0  0  0  0
   -3.2265   -2.7621   -2.1830 S   0  0  0  0  0  1  0  0  0  0  0  0
  1  2  2  0  0  0  0
  1  6  1  0  0  0  0
  2  3  1  0  0  0  0
  3 11  1  0  0  0  0
  3  4  2  0  0  0  0
  4 12  1  0  0  0  0
  5 13  1  0  0  0  0
  5  4  1  0  0  0  0
  6  5  2  0  0  0  0
  7  6  1  0  0  0  0
  7  9  2  0  0  0  0
  8  7  2  0  0  0  0
 10  1  1  0  0  0  0
 14 17  1  0  0  0  0
 15 14  1  0  0  0  0
 16 14  1  0  0  0  0
 18 14  1  0  0  0  0
M  END
$$$$
Coordinates from ORCA-job TS_search_opt_without_h_MEP E -990.274299022531
 OpenBabel09152311013D

 18 17  0  0  0  0  0  0  0  0999 V2000
    1.8251    0.6824   -0.3917 C   0  0  0  0  0  0  0  0  0  0  0  0
    3.0004    0.3880    0.0905 N   0  0  0  0  0  0  0  0  0  0  0  0
    3.2558    0.7164    1.3632 C   0  0  0  0  0  0  0  0  0  0  0  0
    2.3359    1.3442    2.1856 C   0  0  0  0  0  0  0  0  0  0  0  0
    1.0890    1.6452    1.6642 C   0  0  0  0  0  0  0  0  0  0  0  0
    0.8229    1.3117    0.3456 C   0  0  0  0  0  0  0  0  0  0  0  0
   -0.4920    1.6241   -0.2100 N   0  0  0  0  0  0  0  0  0  0  0  0
   -0.6419    1.5886   -1.4148 O   0  0  0  0  0  0  0  0  0  0  0  0
   -1.3751    1.9147    0.5736 O   0  0  0  0  0  0  0  0  0  0  0  0
    1.6205    0.3207   -1.6566 F   0  0  0  0  0  0  0  0  0  0  0  0
    4.2432    0.4585    1.7305 H   0  0  0  0  0  0  0  0  0  0  0  0
    2.5886    1.5897    3.2090 H   0  0  0  0  0  0  0  0  0  0  0  0
    0.3264    2.1373    2.2554 H   0  0  0  0  0  0  0  0  0  0  0  0
   -3.8106   -3.2223   -1.9816 C   0  0  0  0  0  0  0  0  0  0  0  0
   -3.6553   -3.6219   -2.9887 H   0  0  0  0  0  0  0  0  0  0  0  0
   -4.7872   -2.7280   -1.9768 H   0  0  0  0  0  0  0  0  0  0  0  0
   -3.8761   -4.0771   -1.3009 H   0  0  0  0  0  0  0  0  0  0  0  0
   -2.4697   -2.0721   -1.4964 S   0  0  0  0  0  1  0  0  0  0  0  0
  1  2  2  0  0  0  0
  1  6  1  0  0  0  0
  2  3  1  0  0  0  0
  3 11  1  0  0  0  0
  3  4  2  0  0  0  0
  4 12  1  0  0  0  0
  5  4  1  0  0  0  0
  5 13  1  0  0  0  0
  6  5  2  0  0  0  0
  7  6  1  0  0  0  0
  7  9  2  0  0  0  0
  8  7  2  0  0  0  0
 10  1  1  0  0  0  0
 14 16  1  0  0  0  0
 14 18  1  0  0  0  0
 14 17  1  0  0  0  0
 15 14  1  0  0  0  0
M  END
$$$$
Coordinates from ORCA-job TS_search_opt_without_h_MEP E -990.275209863538
 OpenBabel09152311013D

 18 17  0  0  0  0  0  0  0  0999 V2000
    1.3678    0.2072   -0.3419 C   0  0  0  0  0  0  0  0  0  0  0  0
    2.5248   -0.1804    0.1182 N   0  0  0  0  0  0  0  0  0  0  0  0
    2.9688    0.3859    1.2487 C   0  0  0  0  0  0  0  0  0  0  0  0
    2.2621    1.3511    1.9456 C   0  0  0  0  0  0  0  0  0  0  0  0
    1.0224    1.7365    1.4605 C   0  0  0  0  0  0  0  0  0  0  0  0
    0.5636    1.1518    0.2908 C   0  0  0  0  0  0  0  0  0  0  0  0
   -0.7435    1.5426   -0.2289 N   0  0  0  0  0  0  0  0  0  0  0  0
   -0.9406    1.4611   -1.4257 O   0  0  0  0  0  0  0  0  0  0  0  0
   -1.5655    1.9417    0.5708 O   0  0  0  0  0  0  0  0  0  0  0  0
    0.9701   -0.3772   -1.4710 F   0  0  0  0  0  0  0  0  0  0  0  0
    3.9352    0.0423    1.6025 H   0  0  0  0  0  0  0  0  0  0  0  0
    2.6689    1.7871    2.8496 H   0  0  0  0  0  0  0  0  0  0  0  0
    0.4194    2.4844    1.9626 H   0  0  0  0  0  0  0  0  0  0  0  0
   -3.1371   -2.7577   -1.8191 C   0  0  0  0  0  0  0  0  0  0  0  0
   -3.0218   -2.0981   -2.6852 H   0  0  0  0  0  0  0  0  0  0  0  0
   -4.2061   -2.9693   -1.7145 H   0  0  0  0  0  0  0  0  0  0  0  0
   -2.6426   -3.7031   -2.0653 H   0  0  0  0  0  0  0  0  0  0  0  0
   -2.4458   -2.0058   -0.2977 S   0  0  0  0  0  1  0  0  0  0  0  0
  1  2  2  0  0  0  0
  1  6  1  0  0  0  0
  2  3  1  0  0  0  0
  3 11  1  0  0  0  0
  3  4  2  0  0  0  0
  4 12  1  0  0  0  0
  5  4  1  0  0  0  0
  5 13  1  0  0  0  0
  6  5  2  0  0  0  0
  7  6  1  0  0  0  0
  7  9  2  0  0  0  0
  8  7  2  0  0  0  0
 10  1  1  0  0  0  0
 14 16  1  0  0  0  0
 14 18  1  0  0  0  0
 15 14  1  0  0  0  0
 17 14  1  0  0  0  0
M  END
$$$$
Coordinates from ORCA-job TS_search_opt_without_h_MEP E -990.264421828020
 OpenBabel09152311013D

 18 17  0  0  0  0  0  0  0  0999 V2000
    0.8015   -0.0898   -0.4310 C   0  0  0  0  0  0  0  0  0  0  0  0
    1.8496   -0.6741    0.0922 N   0  0  0  0  0  0  0  0  0  0  0  0
    2.4292   -0.1137    1.1585 C   0  0  0  0  0  0  0  0  0  0  0  0
    2.0195    1.0909    1.7068 C   0  0  0  0  0  0  0  0  0  0  0  0
    0.8499    1.6512    1.2202 C   0  0  0  0  0  0  0  0  0  0  0  0
    0.2098    1.0423    0.1595 C   0  0  0  0  0  0  0  0  0  0  0  0
   -1.0712    1.5591   -0.2764 N   0  0  0  0  0  0  0  0  0  0  0  0
   -1.4568    1.3305   -1.3968 O   0  0  0  0  0  0  0  0  0  0  0  0
   -1.7257    2.2013    0.5428 O   0  0  0  0  0  0  0  0  0  0  0  0
    0.5715   -0.3918   -1.7140 F   0  0  0  0  0  0  0  0  0  0  0  0
    3.2903   -0.6363    1.5591 H   0  0  0  0  0  0  0  0  0  0  0  0
    2.6039    1.5785    2.4758 H   0  0  0  0  0  0  0  0  0  0  0  0
    0.4437    2.5690    1.6320 H   0  0  0  0  0  0  0  0  0  0  0  0
   -2.2190   -2.2476   -1.4547 C   0  0  0  0  0  0  0  0  0  0  0  0
   -2.1867   -1.4524   -2.2104 H   0  0  0  0  0  0  0  0  0  0  0  0
   -3.2694   -2.4201   -1.2112 H   0  0  0  0  0  0  0  0  0  0  0  0
   -1.8355   -3.1591   -1.9240 H   0  0  0  0  0  0  0  0  0  0  0  0
   -1.3046   -1.8377    0.0716 S   0  0  0  0  0  1  0  0  0  0  0  0
  1  2  2  0  0  0  0
  1  6  1  0  0  0  0
  2  3  1  0  0  0  0
  3 11  1  0  0  0  0
  3  4  2  0  0  0  0
  4 12  1  0  0  0  0
  5 13  1  0  0  0  0
  5  4  1  0  0  0  0
  6  5  2  0  0  0  0
  7  6  1  0  0  0  0
  7  9  2  0  0  0  0
  8  7  2  0  0  0  0
 10  1  1  0  0  0  0
 14 16  1  0  0  0  0
 14 18  1  0  0  0  0
 15 14  1  0  0  0  0
 17 14  1  0  0  0  0
M  END
$$$$
Coordinates from ORCA-job TS_search_opt_without_h_MEP E -990.259179971804
 OpenBabel09152311013D

 18 17  0  0  0  0  0  0  0  0999 V2000
    0.6815   -0.1894   -0.3902 C   0  0  0  0  0  0  0  0  0  0  0  0
    1.7806   -0.7412    0.1339 N   0  0  0  0  0  0  0  0  0  0  0  0
    2.3926   -0.1400    1.1505 C   0  0  0  0  0  0  0  0  0  0  0  0
    2.0061    1.0825    1.6946 C   0  0  0  0  0  0  0  0  0  0  0  0
    0.8391    1.6427    1.2119 C   0  0  0  0  0  0  0  0  0  0  0  0
    0.1715    1.0223    0.1681 C   0  0  0  0  0  0  0  0  0  0  0  0
   -1.0836    1.5597   -0.2561 N   0  0  0  0  0  0  0  0  0  0  0  0
   -1.4861    1.3073   -1.3808 O   0  0  0  0  0  0  0  0  0  0  0  0
   -1.7293    2.2374    0.5392 O   0  0  0  0  0  0  0  0  0  0  0  0
    0.6053   -0.3702   -1.7434 F   0  0  0  0  0  0  0  0  0  0  0  0
    3.2772   -0.6416    1.5335 H   0  0  0  0  0  0  0  0  0  0  0  0
    2.6084    1.5751    2.4486 H   0  0  0  0  0  0  0  0  0  0  0  0
    0.4507    2.5750    1.6078 H   0  0  0  0  0  0  0  0  0  0  0  0
   -2.1636   -2.2147   -1.4514 C   0  0  0  0  0  0  0  0  0  0  0  0
   -2.1750   -1.4386   -2.2228 H   0  0  0  0  0  0  0  0  0  0  0  0
   -3.2017   -2.3860   -1.1486 H   0  0  0  0  0  0  0  0  0  0  0  0
   -1.8008   -3.1397   -1.9092 H   0  0  0  0  0  0  0  0  0  0  0  0
   -1.1731   -1.7407    0.0145 S   0  0  0  0  0  1  0  0  0  0  0  0
  1  2  2  0  0  0  0
  1  6  1  0  0  0  0
  2  3  1  0  0  0  0
  3 11  1  0  0  0  0
  3  4  2  0  0  0  0
  4 12  1  0  0  0  0
  5 13  1  0  0  0  0
  5  4  1  0  0  0  0
  6  5  2  0  0  0  0
  7  6  1  0  0  0  0
  7  9  2  0  0  0  0
  8  7  2  0  0  0  0
 10  1  1  0  0  0  0
 14 16  1  0  0  0  0
 14 18  1  0  0  0  0
 15 14  1  0  0  0  0
 17 14  1  0  0  0  0
M  END
$$$$
Coordinates from ORCA-job TS_search_opt_without_h_MEP E -990.259576473184
 OpenBabel09152311013D

 18 17  0  0  0  0  0  0  0  0999 V2000
    0.6384   -0.2249   -0.3786 C   0  0  0  0  0  0  0  0  0  0  0  0
    1.7662   -0.7568    0.1443 N   0  0  0  0  0  0  0  0  0  0  0  0
    2.3863   -0.1432    1.1462 C   0  0  0  0  0  0  0  0  0  0  0  0
    2.0026    1.0811    1.6924 C   0  0  0  0  0  0  0  0  0  0  0  0
    0.8393    1.6416    1.2115 C   0  0  0  0  0  0  0  0  0  0  0  0
    0.1629    1.0178    0.1691 C   0  0  0  0  0  0  0  0  0  0  0  0
   -1.0836    1.5598   -0.2503 N   0  0  0  0  0  0  0  0  0  0  0  0
   -1.4921    1.3037   -1.3799 O   0  0  0  0  0  0  0  0  0  0  0  0
   -1.7304    2.2441    0.5386 O   0  0  0  0  0  0  0  0  0  0  0  0
    0.6143   -0.3654   -1.7515 F   0  0  0  0  0  0  0  0  0  0  0  0
    3.2745   -0.6410    1.5264 H   0  0  0  0  0  0  0  0  0  0  0  0
    2.6073    1.5735    2.4435 H   0  0  0  0  0  0  0  0  0  0  0  0
    0.4516    2.5758    1.6032 H   0  0  0  0  0  0  0  0  0  0  0  0
   -2.1495   -2.2061   -1.4515 C   0  0  0  0  0  0  0  0  0  0  0  0
   -2.1729   -1.4352   -2.2258 H   0  0  0  0  0  0  0  0  0  0  0  0
   -3.1853   -2.3773   -1.1342 H   0  0  0  0  0  0  0  0  0  0  0  0
   -1.7930   -3.1353   -1.9051 H   0  0  0  0  0  0  0  0  0  0  0  0
   -1.1367   -1.7121    0.0019 S   0  0  0  0  0  1  0  0  0  0  0  0
  1  2  2  0  0  0  0
  1  6  1  0  0  0  0
  2  3  1  0  0  0  0
  3 11  1  0  0  0  0
  3  4  2  0  0  0  0
  4 12  1  0  0  0  0
  5 13  1  0  0  0  0
  5  4  1  0  0  0  0
  6  5  2  0  0  0  0
  7  6  1  0  0  0  0
  7  9  2  0  0  0  0
  8  7  2  0  0  0  0
 10  1  1  0  0  0  0
 14 16  1  0  0  0  0
 14 18  1  0  0  0  0
 15 14  1  0  0  0  0
 17 14  1  0  0  0  0
M  END
$$$$
Coordinates from ORCA-job TS_search_opt_without_h_MEP E -990.272054065630
 OpenBabel09152311013D

 18 18  0  0  1  0  0  0  0  0999 V2000
    0.4813   -0.3437   -0.3306 C   0  0  1  0  0  0  0  0  0  0  0  0
    1.6761   -0.8430    0.2097 N   0  0  0  0  0  0  0  0  0  0  0  0
    2.3440   -0.1703    1.1160 C   0  0  0  0  0  0  0  0  0  0  0  0
    1.9850    1.0674    1.6714 C   0  0  0  0  0  0  0  0  0  0  0  0
    0.8268    1.6304    1.1969 C   0  0  0  0  0  0  0  0  0  0  0  0
    0.1129    0.9842    0.1871 C   0  0  2  0  0  3  0  0  0  0  0  0
   -1.0980    1.5546   -0.2354 N   0  0  0  0  0  0  0  0  0  0  0  0
   -1.5328    1.2855   -1.3597 O   0  0  0  0  0  0  0  0  0  0  0  0
   -1.7323    2.2920    0.5312 O   0  0  0  0  0  0  0  0  0  0  0  0
    0.6528   -0.3513   -1.7862 F   0  0  0  0  0  0  0  0  0  0  0  0
    3.2523   -0.6452    1.4801 H   0  0  0  0  0  0  0  0  0  0  0  0
    2.5991    1.5598    2.4018 H   0  0  0  0  0  0  0  0  0  0  0  0
    0.4554    2.5765    1.5732 H   0  0  0  0  0  0  0  0  0  0  0  0
   -2.0632   -2.1505   -1.4528 C   0  0  0  0  0  0  0  0  0  0  0  0
   -2.1499   -1.4035   -2.2426 H   0  0  0  0  0  0  0  0  0  0  0  0
   -3.0755   -2.3174   -1.0577 H   0  0  0  0  0  0  0  0  0  0  0  0
   -1.7342   -3.1005   -1.8840 H   0  0  0  0  0  0  0  0  0  0  0  0
   -1.0000   -1.6250   -0.0184 S   0  0  0  0  0  0  0  0  0  0  0  0
  1 10  1  6  0  0  0
  1 18  1  0  0  0  0
  1  6  1  0  0  0  0
  1  2  1  0  0  0  0
  2  3  2  0  0  0  0
  3 11  1  0  0  0  0
  3  4  1  0  0  0  0
  4 12  1  0  0  0  0
  5 13  1  0  0  0  0
  5  4  2  0  0  0  0
  6  7  1  1  0  0  0
  6  5  1  0  0  0  0
  7  9  2  0  0  0  0
  8  7  2  0  0  0  0
 14 16  1  0  0  0  0
 14 18  1  0  0  0  0
 15 14  1  0  0  0  0
 17 14  1  0  0  0  0
M  END
$$$$
Coordinates from ORCA-job TS_search_opt_without_h_MEP E -990.289681465900
 OpenBabel09152311013D

 18 17  0  0  0  0  0  0  0  0999 V2000
    0.1899   -0.5185    0.2207 C   0  0  0  0  0  0  0  0  0  0  0  0
    1.3647   -1.0189    0.5801 N   0  0  0  0  0  0  0  0  0  0  0  0
    2.2745   -0.2267    1.1601 C   0  0  0  0  0  0  0  0  0  0  0  0
    2.0232    1.0850    1.5198 C   0  0  0  0  0  0  0  0  0  0  0  0
    0.8256    1.6488    1.1129 C   0  0  0  0  0  0  0  0  0  0  0  0
   -0.0500    0.8517    0.4004 C   0  0  0  0  0  0  0  0  0  0  0  0
   -1.2624    1.4848   -0.1153 N   0  0  0  0  0  0  0  0  0  0  0  0
   -1.5739    1.2588   -1.2685 O   0  0  0  0  0  0  0  0  0  0  0  0
   -1.8735    2.2317    0.6244 O   0  0  0  0  0  0  0  0  0  0  0  0
    1.0884   -0.3189   -2.5638 F   0  0  0  0  0 15  0  0  0  0  0  0
    3.2308   -0.6864    1.3833 H   0  0  0  0  0  0  0  0  0  0  0  0
    2.7316    1.6435    2.1153 H   0  0  0  0  0  0  0  0  0  0  0  0
    0.5630    2.6730    1.3501 H   0  0  0  0  0  0  0  0  0  0  0  0
   -1.9407   -2.0293   -1.4535 C   0  0  0  0  0  0  0  0  0  0  0  0
   -1.9487   -1.1877   -2.1451 H   0  0  0  0  0  0  0  0  0  0  0  0
   -2.9701   -2.2505   -1.1604 H   0  0  0  0  0  0  0  0  0  0  0  0
   -1.5176   -2.9170   -1.9243 H   0  0  0  0  0  0  0  0  0  0  0  0
   -1.1547   -1.7232    0.1637 S   0  0  0  0  0  0  0  0  0  0  0  0
  1  6  2  0  0  0  0
  1  2  1  0  0  0  0
  2  3  2  0  0  0  0
  3 11  1  0  0  0  0
  3  4  1  0  0  0  0
  4 12  1  0  0  0  0
  5 13  1  0  0  0  0
  5  4  2  0  0  0  0
  6  5  1  0  0  0  0
  7  6  1  0  0  0  0
  7  9  2  0  0  0  0
  8  7  2  0  0  0  0
 14 16  1  0  0  0  0
 14 18  1  0  0  0  0
 15 14  1  0  0  0  0
 17 14  1  0  0  0  0
 18  1  1  0  0  0  0
M  END
$$$$
Coordinates from ORCA-job TS_search_opt_without_h_MEP E -990.298081067044
 OpenBabel09152311013D

 18 17  0  0  0  0  0  0  0  0999 V2000
   -0.0361   -0.5074    0.4119 C   0  0  0  0  0  0  0  0  0  0  0  0
    1.1716   -1.0290    0.5976 N   0  0  0  0  0  0  0  0  0  0  0  0
    2.1606   -0.2374    1.0304 C   0  0  0  0  0  0  0  0  0  0  0  0
    1.9732    1.0834    1.4109 C   0  0  0  0  0  0  0  0  0  0  0  0
    0.7418    1.6655    1.1589 C   0  0  0  0  0  0  0  0  0  0  0  0
   -0.2289    0.8653    0.5867 C   0  0  0  0  0  0  0  0  0  0  0  0
   -1.4709    1.5005    0.1446 N   0  0  0  0  0  0  0  0  0  0  0  0
   -1.8485    1.2482   -0.9826 O   0  0  0  0  0  0  0  0  0  0  0  0
   -2.0290    2.2715    0.8985 O   0  0  0  0  0  0  0  0  0  0  0  0
    2.5027   -1.0584   -3.5629 F   0  0  0  0  0 15  0  0  0  0  0  0
    3.1408   -0.6963    1.1137 H   0  0  0  0  0  0  0  0  0  0  0  0
    2.7736    1.6426    1.8808 H   0  0  0  0  0  0  0  0  0  0  0  0
    0.5343    2.7046    1.3916 H   0  0  0  0  0  0  0  0  0  0  0  0
   -1.8891   -1.9080   -1.3650 C   0  0  0  0  0  0  0  0  0  0  0  0
   -1.8815   -0.9814   -1.9354 H   0  0  0  0  0  0  0  0  0  0  0  0
   -2.9155   -2.2818   -1.3158 H   0  0  0  0  0  0  0  0  0  0  0  0
   -1.2582   -2.6644   -1.8308 H   0  0  0  0  0  0  0  0  0  0  0  0
   -1.4409   -1.6176    0.3668 S   0  0  0  0  0  0  0  0  0  0  0  0
  1  6  2  0  0  0  0
  1  2  1  0  0  0  0
  2  3  2  0  0  0  0
  3 11  1  0  0  0  0
  3  4  1  0  0  0  0
  4 12  1  0  0  0  0
  5 13  1  0  0  0  0
  5  4  2  0  0  0  0
  6  5  1  0  0  0  0
  7  6  1  0  0  0  0
  7  9  2  0  0  0  0
  8  7  2  0  0  0  0
 14 16  1  0  0  0  0
 14 18  1  0  0  0  0
 15 14  1  0  0  0  0
 17 14  1  0  0  0  0
 18  1  1  0  0  0  0
M  END
$$$$
Coordinates from ORCA-job TS_search_opt_without_h_MEP E -990.305524064030
 OpenBabel09152311013D

 18 17  0  0  0  0  0  0  0  0999 V2000
   -0.0710   -0.5556    0.4868 C   0  0  0  0  0  0  0  0  0  0  0  0
    1.1688   -1.0208    0.6337 N   0  0  0  0  0  0  0  0  0  0  0  0
    2.1505   -0.1805    0.9667 C   0  0  0  0  0  0  0  0  0  0  0  0
    1.9617    1.1763    1.1784 C   0  0  0  0  0  0  0  0  0  0  0  0
    0.6828    1.6809    1.0419 C   0  0  0  0  0  0  0  0  0  0  0  0
   -0.3307    0.8043    0.6870 C   0  0  0  0  0  0  0  0  0  0  0  0
   -1.6652    1.4009    0.5388 N   0  0  0  0  0  0  0  0  0  0  0  0
   -2.3555    1.0786   -0.4031 O   0  0  0  0  0  0  0  0  0  0  0  0
   -1.9973    2.2189    1.3772 O   0  0  0  0  0  0  0  0  0  0  0  0
    1.6770   -2.5747   -2.6293 F   0  0  0  0  0 15  0  0  0  0  0  0
    3.1384   -0.6202    1.0624 H   0  0  0  0  0  0  0  0  0  0  0  0
    2.7932    1.8173    1.4435 H   0  0  0  0  0  0  0  0  0  0  0  0
    0.4630    2.7313    1.1959 H   0  0  0  0  0  0  0  0  0  0  0  0
   -1.5337   -1.5547   -1.6640 C   0  0  0  0  0  0  0  0  0  0  0  0
   -1.9172   -0.5640   -1.8927 H   0  0  0  0  0  0  0  0  0  0  0  0
   -2.2620   -2.3085   -1.9696 H   0  0  0  0  0  0  0  0  0  0  0  0
   -0.5868   -1.7460   -2.1759 H   0  0  0  0  0  0  0  0  0  0  0  0
   -1.3158   -1.7836    0.1222 S   0  0  0  0  0  0  0  0  0  0  0  0
  1  2  2  0  0  0  0
  1  6  1  0  0  0  0
  2  3  1  0  0  0  0
  3 11  1  0  0  0  0
  3  4  2  0  0  0  0
  4 12  1  0  0  0  0
  5  4  1  0  0  0  0
  5 13  1  0  0  0  0
  6  5  2  0  0  0  0
  7  6  1  0  0  0  0
  7  9  2  0  0  0  0
  8  7  2  0  0  0  0
 14 18  1  0  0  0  0
 15 14  1  0  0  0  0
 16 14  1  0  0  0  0
 17 14  1  0  0  0  0
 18  1  1  0  0  0  0
M  END
$$$$
