Coordinates from ORCA-job TS_search_opt_without_h_MEP E -990.266418792486
 OpenBabel09152311013D

 18 17  0  0  0  0  0  0  0  0999 V2000
    1.0473    1.7757    1.0707 C   0  0  0  0  0  0  0  0  0  0  0  0
    2.1702    1.5881    1.6936 N   0  0  0  0  0  0  0  0  0  0  0  0
    2.2432    1.5755    3.0244 C   0  0  0  0  0  0  0  0  0  0  0  0
    1.1363    1.7579    3.8228 C   0  0  0  0  0  0  0  0  0  0  0  0
   -0.0708    1.9594    3.1852 C   0  0  0  0  0  0  0  0  0  0  0  0
   -0.1451    1.9724    1.8015 C   0  0  0  0  0  0  0  0  0  0  0  0
   -1.4088    2.1842    1.1432 N   0  0  0  0  0  0  0  0  0  0  0  0
   -1.4932    2.2002   -0.1018 O   0  0  0  0  0  0  0  0  0  0  0  0
   -2.4187    2.3513    1.8007 O   0  0  0  0  0  0  0  0  0  0  0  0
    1.0479    1.7778   -0.2793 F   0  0  0  0  0  0  0  0  0  0  0  0
    3.2288    1.4132    3.4467 H   0  0  0  0  0  0  0  0  0  0  0  0
    1.2064    1.7455    4.9023 H   0  0  0  0  0  0  0  0  0  0  0  0
   -0.9698    2.1079    3.7627 H   0  0  0  0  0  0  0  0  0  0  0  0
   -1.1494   -4.9866   -5.9350 C   0  0  0  0  0  0  0  0  0  0  0  0
   -0.6901   -4.8670   -6.9203 H   0  0  0  0  0  0  0  0  0  0  0  0
   -2.2357   -5.0306   -6.0516 H   0  0  0  0  0  0  0  0  0  0  0  0
   -0.7993   -5.9237   -5.4931 H   0  0  0  0  0  0  0  0  0  0  0  0
   -0.6991   -3.6012   -4.8726 S   0  0  0  0  0  1  0  0  0  0  0  0
  1  2  2  0  0  0  0
  1  6  1  0  0  0  0
  2  3  1  0  0  0  0
  3 11  1  0  0  0  0
  3  4  2  0  0  0  0
  4 12  1  0  0  0  0
  5 13  1  0  0  0  0
  5  4  1  0  0  0  0
  6  5  2  0  0  0  0
  7  9  2  0  0  0  0
  7  6  1  0  0  0  0
  8  7  2  0  0  0  0
 10  1  1  0  0  0  0
 14 17  1  0  0  0  0
 14 18  1  0  0  0  0
 15 14  1  0  0  0  0
 16 14  1  0  0  0  0
M  END
$$$$
Coordinates from ORCA-job TS_search_opt_without_h_MEP E -990.273171135128
 OpenBabel09152311013D

 18 17  0  0  0  0  0  0  0  0999 V2000
    0.9180    1.1325    0.7254 C   0  0  0  0  0  0  0  0  0  0  0  0
    2.0716    0.9554    1.3067 N   0  0  0  0  0  0  0  0  0  0  0  0
    2.1582    1.2114    2.6181 C   0  0  0  0  0  0  0  0  0  0  0  0
    1.0857    1.6391    3.3815 C   0  0  0  0  0  0  0  0  0  0  0  0
   -0.1353    1.8194    2.7539 C   0  0  0  0  0  0  0  0  0  0  0  0
   -0.2252    1.5684    1.3939 C   0  0  0  0  0  0  0  0  0  0  0  0
   -1.5058    1.7749    0.7214 N   0  0  0  0  0  0  0  0  0  0  0  0
   -1.5260    1.8290   -0.4921 O   0  0  0  0  0  0  0  0  0  0  0  0
   -2.4933    1.8929    1.4204 O   0  0  0  0  0  0  0  0  0  0  0  0
    0.8841    0.8452   -0.5742 F   0  0  0  0  0  0  0  0  0  0  0  0
    3.1343    1.0630    3.0671 H   0  0  0  0  0  0  0  0  0  0  0  0
    1.2040    1.8292    4.4405 H   0  0  0  0  0  0  0  0  0  0  0  0
   -1.0103    2.1564    3.2962 H   0  0  0  0  0  0  0  0  0  0  0  0
   -0.9209   -4.0137   -4.9141 C   0  0  0  0  0  0  0  0  0  0  0  0
   -0.6438   -3.4550   -5.8132 H   0  0  0  0  0  0  0  0  0  0  0  0
   -1.9414   -4.3808   -5.0618 H   0  0  0  0  0  0  0  0  0  0  0  0
   -0.2657   -4.8885   -4.8591 H   0  0  0  0  0  0  0  0  0  0  0  0
   -0.7881   -2.9788   -3.4107 S   0  0  0  0  0  1  0  0  0  0  0  0
  1  2  2  0  0  0  0
  1  6  1  0  0  0  0
  2  3  1  0  0  0  0
  3 11  1  0  0  0  0
  3  4  2  0  0  0  0
  4 12  1  0  0  0  0
  5 13  1  0  0  0  0
  5  4  1  0  0  0  0
  6  5  2  0  0  0  0
  7  6  1  0  0  0  0
  7  9  2  0  0  0  0
  8  7  2  0  0  0  0
 10  1  1  0  0  0  0
 14 17  1  0  0  0  0
 14 18  1  0  0  0  0
 15 14  1  0  0  0  0
 16 14  1  0  0  0  0
M  END
$$$$
Coordinates from ORCA-job TS_search_opt_without_h_MEP E -990.273617617251
 OpenBabel09152311013D

 18 17  0  0  0  0  0  0  0  0999 V2000
    0.8591    0.6572    0.4355 C   0  0  0  0  0  0  0  0  0  0  0  0
    2.0002    0.5058    1.0481 N   0  0  0  0  0  0  0  0  0  0  0  0
    2.0919    0.9285    2.3154 C   0  0  0  0  0  0  0  0  0  0  0  0
    1.0378    1.5059    3.0011 C   0  0  0  0  0  0  0  0  0  0  0  0
   -0.1687    1.6629    2.3396 C   0  0  0  0  0  0  0  0  0  0  0  0
   -0.2650    1.2332    1.0241 C   0  0  0  0  0  0  0  0  0  0  0  0
   -1.5335    1.4060    0.3204 N   0  0  0  0  0  0  0  0  0  0  0  0
   -1.5600    1.2350   -0.8856 O   0  0  0  0  0  0  0  0  0  0  0  0
   -2.5024    1.7213    0.9786 O   0  0  0  0  0  0  0  0  0  0  0  0
    0.8222    0.2028   -0.8149 F   0  0  0  0  0  0  0  0  0  0  0  0
    3.0572    0.7937    2.7919 H   0  0  0  0  0  0  0  0  0  0  0  0
    1.1577    1.8276    4.0281 H   0  0  0  0  0  0  0  0  0  0  0  0
   -1.0278    2.1132    2.8199 H   0  0  0  0  0  0  0  0  0  0  0  0
   -0.7692   -3.1474   -4.0018 C   0  0  0  0  0  0  0  0  0  0  0  0
   -0.9567   -2.1319   -4.3618 H   0  0  0  0  0  0  0  0  0  0  0  0
   -1.3878   -3.8208   -4.6024 H   0  0  0  0  0  0  0  0  0  0  0  0
    0.2764   -3.3827   -4.2197 H   0  0  0  0  0  0  0  0  0  0  0  0
   -1.1314   -3.3103   -2.2165 S   0  0  0  0  0  1  0  0  0  0  0  0
  1  6  2  0  0  0  0
  1  2  1  0  0  0  0
  2  3  2  0  0  0  0
  3 11  1  0  0  0  0
  3  4  1  0  0  0  0
  4 12  1  0  0  0  0
  5 13  1  0  0  0  0
  5  4  2  0  0  0  0
  6  5  1  0  0  0  0
  7  9  2  0  0  0  0
  7  6  1  0  0  0  0
  8  7  2  0  0  0  0
 10  1  1  0  0  0  0
 14 18  1  0  0  0  0
 15 14  1  0  0  0  0
 16 14  1  0  0  0  0
 17 14  1  0  0  0  0
M  END
$$$$
Coordinates from ORCA-job TS_search_opt_without_h_MEP E -990.273790535869
 OpenBabel09152311013D

 18 17  0  0  0  0  0  0  0  0999 V2000
    0.7563    0.5534   -0.0373 C   0  0  0  0  0  0  0  0  0  0  0  0
    1.8585    0.2121    0.5759 N   0  0  0  0  0  0  0  0  0  0  0  0
    1.9414    0.4481    1.8944 C   0  0  0  0  0  0  0  0  0  0  0  0
    0.9575    1.0952    2.6119 C   0  0  0  0  0  0  0  0  0  0  0  0
   -0.2330    1.3951    1.9690 C   0  0  0  0  0  0  0  0  0  0  0  0
   -0.3518    1.0765    0.6190 C   0  0  0  0  0  0  0  0  0  0  0  0
   -1.6505    1.2437   -0.0183 N   0  0  0  0  0  0  0  0  0  0  0  0
   -1.7178    1.2034   -1.2420 O   0  0  0  0  0  0  0  0  0  0  0  0
   -2.6184    1.3919    0.6980 O   0  0  0  0  0  0  0  0  0  0  0  0
    0.7680    0.4002   -1.3572 F   0  0  0  0  0  0  0  0  0  0  0  0
    2.8462    0.0951    2.3802 H   0  0  0  0  0  0  0  0  0  0  0  0
    1.1004    1.3375    3.6593 H   0  0  0  0  0  0  0  0  0  0  0  0
   -1.0593    1.8600    2.4863 H   0  0  0  0  0  0  0  0  0  0  0  0
   -0.5086   -2.4479   -2.9689 C   0  0  0  0  0  0  0  0  0  0  0  0
   -0.7579   -1.4349   -3.3047 H   0  0  0  0  0  0  0  0  0  0  0  0
   -1.1815   -3.1349   -3.4921 H   0  0  0  0  0  0  0  0  0  0  0  0
    0.5052   -2.6642   -3.3222 H   0  0  0  0  0  0  0  0  0  0  0  0
   -0.6546   -2.6302   -1.1513 S   0  0  0  0  0  1  0  0  0  0  0  0
  1  2  2  0  0  0  0
  1  6  1  0  0  0  0
  2  3  1  0  0  0  0
  3 11  1  0  0  0  0
  3  4  2  0  0  0  0
  4 12  1  0  0  0  0
  5 13  1  0  0  0  0
  5  4  1  0  0  0  0
  6  5  2  0  0  0  0
  7  6  1  0  0  0  0
  7  9  2  0  0  0  0
  8  7  2  0  0  0  0
 10  1  1  0  0  0  0
 14 18  1  0  0  0  0
 15 14  1  0  0  0  0
 16 14  1  0  0  0  0
 17 14  1  0  0  0  0
M  END
$$$$
Coordinates from ORCA-job TS_search_opt_without_h_MEP E -990.265346366427
 OpenBabel09152311013D

 18 17  0  0  0  0  0  0  0  0999 V2000
    0.6762    0.3514   -0.1507 C   0  0  0  0  0  0  0  0  0  0  0  0
    1.7699   -0.0087    0.4752 N   0  0  0  0  0  0  0  0  0  0  0  0
    1.8781    0.2619    1.7772 C   0  0  0  0  0  0  0  0  0  0  0  0
    0.9329    0.9869    2.4888 C   0  0  0  0  0  0  0  0  0  0  0  0
   -0.2528    1.2943    1.8481 C   0  0  0  0  0  0  0  0  0  0  0  0
   -0.4157    0.9282    0.5226 C   0  0  0  0  0  0  0  0  0  0  0  0
   -1.7049    1.1365   -0.1019 N   0  0  0  0  0  0  0  0  0  0  0  0
   -1.8104    1.0151   -1.3020 O   0  0  0  0  0  0  0  0  0  0  0  0
   -2.6521    1.3990    0.6317 O   0  0  0  0  0  0  0  0  0  0  0  0
    0.7973    0.4686   -1.4749 F   0  0  0  0  0  0  0  0  0  0  0  0
    2.7891   -0.0781    2.2574 H   0  0  0  0  0  0  0  0  0  0  0  0
    1.1284    1.3081    3.5033 H   0  0  0  0  0  0  0  0  0  0  0  0
   -1.0450    1.8395    2.3488 H   0  0  0  0  0  0  0  0  0  0  0  0
   -0.4118   -2.1755   -2.6889 C   0  0  0  0  0  0  0  0  0  0  0  0
   -0.7043   -1.2183   -3.1373 H   0  0  0  0  0  0  0  0  0  0  0  0
   -1.1091   -2.9331   -3.0537 H   0  0  0  0  0  0  0  0  0  0  0  0
    0.5798   -2.4285   -3.0805 H   0  0  0  0  0  0  0  0  0  0  0  0
   -0.4454   -2.1471   -0.8631 S   0  0  0  0  0  1  0  0  0  0  0  0
  1  2  2  0  0  0  0
  1  6  1  0  0  0  0
  2  3  1  0  0  0  0
  3 11  1  0  0  0  0
  3  4  2  0  0  0  0
  4 12  1  0  0  0  0
  5 13  1  0  0  0  0
  5  4  1  0  0  0  0
  6  5  2  0  0  0  0
  7  6  1  0  0  0  0
  7  9  2  0  0  0  0
  8  7  2  0  0  0  0
 10  1  1  0  0  0  0
 14 18  1  0  0  0  0
 15 14  1  0  0  0  0
 16 14  1  0  0  0  0
 17 14  1  0  0  0  0
M  END
$$$$
Coordinates from ORCA-job TS_search_opt_without_h_MEP E -990.260353967991
 OpenBabel09152311013D

 18 17  0  0  0  0  0  0  0  0999 V2000
    0.6156    0.2147   -0.1737 C   0  0  0  0  0  0  0  0  0  0  0  0
    1.7441   -0.0857    0.4767 N   0  0  0  0  0  0  0  0  0  0  0  0
    1.8652    0.2383    1.7563 C   0  0  0  0  0  0  0  0  0  0  0  0
    0.9260    0.9781    2.4756 C   0  0  0  0  0  0  0  0  0  0  0  0
   -0.2556    1.2828    1.8351 C   0  0  0  0  0  0  0  0  0  0  0  0
   -0.4374    0.8895    0.5130 C   0  0  0  0  0  0  0  0  0  0  0  0
   -1.7087    1.1195   -0.0936 N   0  0  0  0  0  0  0  0  0  0  0  0
   -1.8252    0.9931   -1.3025 O   0  0  0  0  0  0  0  0  0  0  0  0
   -2.6601    1.4137    0.6311 O   0  0  0  0  0  0  0  0  0  0  0  0
    0.8287    0.5102   -1.4863 F   0  0  0  0  0  0  0  0  0  0  0  0
    2.7890   -0.0717    2.2375 H   0  0  0  0  0  0  0  0  0  0  0  0
    1.1338    1.3150    3.4833 H   0  0  0  0  0  0  0  0  0  0  0  0
   -1.0368    1.8501    2.3284 H   0  0  0  0  0  0  0  0  0  0  0  0
   -0.3907   -2.1326   -2.6624 C   0  0  0  0  0  0  0  0  0  0  0  0
   -0.7017   -1.2025   -3.1477 H   0  0  0  0  0  0  0  0  0  0  0  0
   -1.0989   -2.9103   -2.9666 H   0  0  0  0  0  0  0  0  0  0  0  0
    0.5882   -2.4115   -3.0647 H   0  0  0  0  0  0  0  0  0  0  0  0
   -0.3755   -1.9906   -0.8396 S   0  0  0  0  0  1  0  0  0  0  0  0
  1  2  2  0  0  0  0
  1  6  1  0  0  0  0
  2  3  1  0  0  0  0
  3 11  1  0  0  0  0
  3  4  2  0  0  0  0
  4 12  1  0  0  0  0
  5 13  1  0  0  0  0
  5  4  1  0  0  0  0
  6  5  2  0  0  0  0
  7  6  1  0  0  0  0
  7  9  2  0  0  0  0
  8  7  2  0  0  0  0
 10  1  1  0  0  0  0
 14 18  1  0  0  0  0
 15 14  1  0  0  0  0
 16 14  1  0  0  0  0
 17 14  1  0  0  0  0
M  END
$$$$
Coordinates from ORCA-job TS_search_opt_without_h_MEP E -990.264026295487
 OpenBabel09152311013D

 18 18  0  0  1  0  0  0  0  0999 V2000
    0.5554    0.0878   -0.2065 C   0  0  1  0  0  0  0  0  0  0  0  0
    1.7314   -0.1292    0.4798 N   0  0  0  0  0  0  0  0  0  0  0  0
    1.8644    0.2335    1.7388 C   0  0  0  0  0  0  0  0  0  0  0  0
    0.9155    0.9745    2.4705 C   0  0  0  0  0  0  0  0  0  0  0  0
   -0.2563    1.2816    1.8276 C   0  0  0  0  0  0  0  0  0  0  0  0
   -0.4516    0.8701    0.5021 C   0  0  2  0  0  3  0  0  0  0  0  0
   -1.7039    1.1128   -0.0866 N   0  0  0  0  0  0  0  0  0  0  0  0
   -1.8324    0.9858   -1.3028 O   0  0  0  0  0  0  0  0  0  0  0  0
   -2.6661    1.4231    0.6335 O   0  0  0  0  0  0  0  0  0  0  0  0
    0.8501    0.5420   -1.4949 F   0  0  0  0  0  0  0  0  0  0  0  0
    2.7957   -0.0683    2.2290 H   0  0  0  0  0  0  0  0  0  0  0  0
    1.1364    1.3164    3.4738 H   0  0  0  0  0  0  0  0  0  0  0  0
   -1.0363    1.8562    2.3224 H   0  0  0  0  0  0  0  0  0  0  0  0
   -0.3747   -2.1042   -2.6482 C   0  0  0  0  0  0  0  0  0  0  0  0
   -0.7006   -1.1919   -3.1520 H   0  0  0  0  0  0  0  0  0  0  0  0
   -1.0916   -2.8943   -2.9161 H   0  0  0  0  0  0  0  0  0  0  0  0
    0.5952   -2.4033   -3.0550 H   0  0  0  0  0  0  0  0  0  0  0  0
   -0.3304   -1.8925   -0.8154 S   0  0  0  0  0  0  0  0  0  0  0  0
  1 10  1  6  0  0  0
  1  2  1  0  0  0  0
  1  6  1  0  0  0  0
  2  3  2  0  0  0  0
  3 11  1  0  0  0  0
  3  4  1  0  0  0  0
  4 12  1  0  0  0  0
  5 13  1  0  0  0  0
  5  4  2  0  0  0  0
  6  7  1  1  0  0  0
  6  5  1  0  0  0  0
  7  9  2  0  0  0  0
  8  7  2  0  0  0  0
 14 18  1  0  0  0  0
 15 14  1  0  0  0  0
 16 14  1  0  0  0  0
 17 14  1  0  0  0  0
 18  1  1  0  0  0  0
M  END
$$$$
Coordinates from ORCA-job TS_search_opt_without_h_MEP E -990.286877534490
 OpenBabel09152311013D

 18 18  0  0  1  0  0  0  0  0999 V2000
    0.4557   -0.1148   -0.2485 C   0  0  1  0  0  0  0  0  0  0  0  0
    1.6413   -0.4074    0.4904 N   0  0  0  0  0  0  0  0  0  0  0  0
    1.8310    0.1264    1.6553 C   0  0  0  0  0  0  0  0  0  0  0  0
    0.9209    0.9655    2.3595 C   0  0  0  0  0  0  0  0  0  0  0  0
   -0.2614    1.2436    1.7539 C   0  0  0  0  0  0  0  0  0  0  0  0
   -0.5376    0.7239    0.4740 C   0  0  1  0  0  3  0  0  0  0  0  0
   -1.7551    1.0277   -0.0936 N   0  0  0  0  0  0  0  0  0  0  0  0
   -1.9475    0.8346   -1.3078 O   0  0  0  0  0  0  0  0  0  0  0  0
   -2.6770    1.5073    0.6089 O   0  0  0  0  0  0  0  0  0  0  0  0
    0.9088    0.5549   -1.4445 F   0  0  0  0  0  0  0  0  0  0  0  0
    2.7878   -0.1058    2.1232 H   0  0  0  0  0  0  0  0  0  0  0  0
    1.1872    1.3710    3.3250 H   0  0  0  0  0  0  0  0  0  0  0  0
   -1.0033    1.8865    2.2164 H   0  0  0  0  0  0  0  0  0  0  0  0
   -0.2825   -1.9033   -2.5281 C   0  0  0  0  0  0  0  0  0  0  0  0
   -0.6586   -1.0376   -3.0763 H   0  0  0  0  0  0  0  0  0  0  0  0
   -0.9916   -2.7226   -2.6512 H   0  0  0  0  0  0  0  0  0  0  0  0
    0.6852   -2.2198   -2.9206 H   0  0  0  0  0  0  0  0  0  0  0  0
   -0.3036   -1.7300   -0.7360 S   0  0  0  0  0  0  0  0  0  0  0  0
  1 10  1  6  0  0  0
  1  6  1  0  0  0  0
  1  2  1  0  0  0  0
  2  3  2  0  0  0  0
  3 11  1  0  0  0  0
  3  4  1  0  0  0  0
  4 12  1  0  0  0  0
  5 13  1  0  0  0  0
  5  4  2  0  0  0  0
  6  7  1  6  0  0  0
  6  5  1  0  0  0  0
  7  9  2  0  0  0  0
  8  7  2  0  0  0  0
 14 18  1  0  0  0  0
 15 14  1  0  0  0  0
 16 14  1  0  0  0  0
 17 14  1  0  0  0  0
 18  1  1  0  0  0  0
M  END
$$$$
Coordinates from ORCA-job TS_search_opt_without_h_MEP E -990.304180031554
 OpenBabel09152311013D

 18 17  0  0  0  0  0  0  0  0999 V2000
   -0.0124   -0.6770    0.2570 C   0  0  0  0  0  0  0  0  0  0  0  0
    1.2137   -0.8834    0.7306 N   0  0  0  0  0  0  0  0  0  0  0  0
    1.7227   -0.0160    1.6105 C   0  0  0  0  0  0  0  0  0  0  0  0
    1.0121    1.0550    2.1359 C   0  0  0  0  0  0  0  0  0  0  0  0
   -0.2517    1.3063    1.6346 C   0  0  0  0  0  0  0  0  0  0  0  0
   -0.7255    0.4566    0.6518 C   0  0  0  0  0  0  0  0  0  0  0  0
   -1.9990    0.8020    0.0151 N   0  0  0  0  0  0  0  0  0  0  0  0
   -2.0447    0.8113   -1.1914 O   0  0  0  0  0  0  0  0  0  0  0  0
   -2.9331    1.1048    0.7439 O   0  0  0  0  0  0  0  0  0  0  0  0
    2.4202    1.4431   -2.2628 F   0  0  0  0  0 15  0  0  0  0  0  0
    2.7412   -0.2056    1.9331 H   0  0  0  0  0  0  0  0  0  0  0  0
    1.4424    1.6784    2.9102 H   0  0  0  0  0  0  0  0  0  0  0  0
   -0.8543    2.1414    1.9790 H   0  0  0  0  0  0  0  0  0  0  0  0
   -0.2909   -1.7657   -2.3619 C   0  0  0  0  0  0  0  0  0  0  0  0
   -0.6250   -0.8027   -2.7462 H   0  0  0  0  0  0  0  0  0  0  0  0
   -0.7952   -2.5620   -2.9145 H   0  0  0  0  0  0  0  0  0  0  0  0
    0.7855   -1.8843   -2.4810 H   0  0  0  0  0  0  0  0  0  0  0  0
   -0.8060   -2.0023   -0.6441 S   0  0  0  0  0  0  0  0  0  0  0  0
  1  6  2  0  0  0  0
  1  2  1  0  0  0  0
  2  3  2  0  0  0  0
  3 11  1  0  0  0  0
  3  4  1  0  0  0  0
  4 12  1  0  0  0  0
  5 13  1  0  0  0  0
  5  4  2  0  0  0  0
  6  5  1  0  0  0  0
  7  6  1  0  0  0  0
  7  9  2  0  0  0  0
  8  7  2  0  0  0  0
 14 18  1  0  0  0  0
 15 14  1  0  0  0  0
 16 14  1  0  0  0  0
 17 14  1  0  0  0  0
 18  1  1  0  0  0  0
M  END
$$$$
Coordinates from ORCA-job TS_search_opt_without_h_MEP E -990.305521232319
 OpenBabel09152311013D

 18 17  0  0  0  0  0  0  0  0999 V2000
    0.0486   -0.6863    0.2781 C   0  0  0  0  0  0  0  0  0  0  0  0
    1.2923   -0.7593    0.7506 N   0  0  0  0  0  0  0  0  0  0  0  0
    1.7234    0.1655    1.6107 C   0  0  0  0  0  0  0  0  0  0  0  0
    0.9442    1.2207    2.0590 C   0  0  0  0  0  0  0  0  0  0  0  0
   -0.3525    1.3123    1.5911 C   0  0  0  0  0  0  0  0  0  0  0  0
   -0.7912    0.3536    0.6910 C   0  0  0  0  0  0  0  0  0  0  0  0
   -2.1719    0.5126    0.2144 N   0  0  0  0  0  0  0  0  0  0  0  0
   -2.4131    0.3545   -0.9622 O   0  0  0  0  0  0  0  0  0  0  0  0
   -3.0070    0.8230    1.0444 O   0  0  0  0  0  0  0  0  0  0  0  0
    3.1801   -0.7822   -2.3731 F   0  0  0  0  0 15  0  0  0  0  0  0
    2.7481    0.0545    1.9513 H   0  0  0  0  0  0  0  0  0  0  0  0
    1.3429    1.9481    2.7553 H   0  0  0  0  0  0  0  0  0  0  0  0
   -1.0178    2.1097    1.9024 H   0  0  0  0  0  0  0  0  0  0  0  0
   -0.2935   -1.2428   -2.4307 C   0  0  0  0  0  0  0  0  0  0  0  0
   -0.9839   -0.4105   -2.5377 H   0  0  0  0  0  0  0  0  0  0  0  0
   -0.5450   -2.0222   -3.1529 H   0  0  0  0  0  0  0  0  0  0  0  0
    0.7412   -0.9286   -2.5917 H   0  0  0  0  0  0  0  0  0  0  0  0
   -0.4450   -2.0225   -0.7998 S   0  0  0  0  0  0  0  0  0  0  0  0
  1  6  2  0  0  0  0
  1  2  1  0  0  0  0
  2  3  2  0  0  0  0
  3 11  1  0  0  0  0
  3  4  1  0  0  0  0
  4 12  1  0  0  0  0
  5 13  1  0  0  0  0
  5  4  2  0  0  0  0
  6  5  1  0  0  0  0
  7  6  1  0  0  0  0
  7  9  2  0  0  0  0
  8  7  2  0  0  0  0
 14 18  1  0  0  0  0
 15 14  1  0  0  0  0
 16 14  1  0  0  0  0
 17 14  1  0  0  0  0
 18  1  1  0  0  0  0
M  END
$$$$
