Coordinates from ORCA-job TS_search_opt_without_h_MEP E -990.262579329762
 OpenBabel09152311013D

 18 17  0  0  0  0  0  0  0  0999 V2000
   -0.1495   -0.5031   -2.6211 C   0  0  0  0  0  0  0  0  0  0  0  0
    0.9684   -0.6843   -1.9778 N   0  0  0  0  0  0  0  0  0  0  0  0
    1.0257   -0.6969   -0.6481 C   0  0  0  0  0  0  0  0  0  0  0  0
   -0.1029   -0.5199    0.1195 C   0  0  0  0  0  0  0  0  0  0  0  0
   -1.3024   -0.3258   -0.5192 C   0  0  0  0  0  0  0  0  0  0  0  0
   -1.3547   -0.3137   -1.9098 C   0  0  0  0  0  0  0  0  0  0  0  0
   -2.6089   -0.1099   -2.5885 N   0  0  0  0  0  0  0  0  0  0  0  0
   -2.6733   -0.0949   -3.8347 O   0  0  0  0  0  0  0  0  0  0  0  0
   -3.5950    0.0453   -1.8941 O   0  0  0  0  0  0  0  0  0  0  0  0
   -0.1270   -0.5014   -3.9709 F   0  0  0  0  0  0  0  0  0  0  0  0
    1.9930   -0.8541   -0.1541 H   0  0  0  0  0  0  0  0  0  0  0  0
    0.0109   -0.5429    1.1905 H   0  0  0  0  0  0  0  0  0  0  0  0
   -2.2148   -0.1822    0.0681 H   0  0  0  0  0  0  0  0  0  0  0  0
    2.0609    1.0809    3.8781 C   0  0  0  0  0  0  0  0  0  0  0  0
    2.8420    0.3821    4.1910 H   0  0  0  0  0  0  0  0  0  0  0  0
    1.1913    0.9590    4.5296 H   0  0  0  0  0  0  0  0  0  0  0  0
    2.4387    2.1028    3.9765 H   0  0  0  0  0  0  0  0  0  0  0  0
    1.5978    0.7590    2.1652 S   0  0  0  0  0  1  0  0  0  0  0  0
  1  2  2  0  0  0  0
  1  6  1  0  0  0  0
  2  3  1  0  0  0  0
  3 11  1  0  0  0  0
  3  4  2  0  0  0  0
  4 12  1  0  0  0  0
  5 13  1  0  0  0  0
  5  4  1  0  0  0  0
  6  5  2  0  0  0  0
  7  6  1  0  0  0  0
  7  9  2  0  0  0  0
  8  7  2  0  0  0  0
 10  1  1  0  0  0  0
 14 17  1  0  0  0  0
 14 15  1  0  0  0  0
 14 16  1  0  0  0  0
 18 14  1  0  0  0  0
M  END
$$$$
Coordinates from ORCA-job TS_search_opt_without_h_MEP E -990.224743114908
 OpenBabel09152311013D

 18 17  0  0  0  0  0  0  0  0999 V2000
    0.0976   -0.0659   -2.2211 C   0  0  0  0  0  0  0  0  0  0  0  0
    1.1238   -0.4882   -1.5757 N   0  0  0  0  0  0  0  0  0  0  0  0
    1.0587   -1.2338   -0.4919 C   0  0  0  0  0  0  0  0  0  0  0  0
   -0.1595   -1.5900    0.0502 C   0  0  0  0  0  0  0  0  0  0  0  0
   -1.2883   -0.9956   -0.4769 C   0  0  0  0  0  0  0  0  0  0  0  0
   -1.2136   -0.1716   -1.6211 C   0  0  0  0  0  0  0  0  0  0  0  0
   -2.4914    0.4648   -2.0243 N   0  0  0  0  0  0  0  0  0  0  0  0
   -2.4973    1.1293   -3.0410 O   0  0  0  0  0  0  0  0  0  0  0  0
   -3.4745    0.3128   -1.3191 O   0  0  0  0  0  0  0  0  0  0  0  0
    0.7052    0.1909   -3.5360 F   0  0  0  0  0  0  0  0  0  0  0  0
    2.0207   -1.5951   -0.1561 H   0  0  0  0  0  0  0  0  0  0  0  0
   -0.1907   -2.2690    0.8882 H   0  0  0  0  0  0  0  0  0  0  0  0
   -2.2500   -1.1902    0.0005 H   0  0  0  0  0  0  0  0  0  0  0  0
    1.7476    1.5142    3.2237 C   0  0  0  0  0  0  0  0  0  0  0  0
    1.8986    0.5371    3.6949 H   0  0  0  0  0  0  0  0  0  0  0  0
    1.0024    2.0501    3.8189 H   0  0  0  0  0  0  0  0  0  0  0  0
    2.6902    2.0642    3.3029 H   0  0  0  0  0  0  0  0  0  0  0  0
    1.2206    1.3360    1.4840 S   0  0  0  0  0  1  0  0  0  0  0  0
  1  6  2  0  0  0  0
  1  2  1  0  0  0  0
  2  3  2  0  0  0  0
  3 11  1  0  0  0  0
  3  4  1  0  0  0  0
  4 12  1  0  0  0  0
  5 13  1  0  0  0  0
  5  4  2  0  0  0  0
  6  5  1  0  0  0  0
  7  6  1  0  0  0  0
  7  9  2  0  0  0  0
  8  7  2  0  0  0  0
 10  1  1  0  0  0  0
 14 17  1  0  0  0  0
 14 15  1  0  0  0  0
 14 16  1  0  0  0  0
 18 14  1  0  0  0  0
M  END
$$$$
Coordinates from ORCA-job TS_search_opt_without_h_MEP E -990.118765245037
 OpenBabel09152311013D

 18 16  0  0  0  0  0  0  0  0999 V2000
   -0.1554    0.0674   -1.9299 C   0  0  0  0  0  3  0  0  0  0  0  0
    0.8928   -0.3525   -1.5907 N   0  0  0  0  0  0  0  0  0  0  0  0
    1.0574   -1.2221   -0.5673 C   0  0  0  0  0  0  0  0  0  0  0  0
   -0.1442   -1.5811    0.0255 C   0  0  0  0  0  0  0  0  0  0  0  0
   -1.3550   -1.0303   -0.4002 C   0  0  0  0  0  0  0  0  0  0  0  0
   -1.4214   -0.1214   -1.4578 C   0  0  0  0  0  0  0  0  0  0  0  0
   -2.6410    0.4988   -1.9394 N   0  0  0  0  0  0  0  0  0  0  0  0
   -2.5694    1.1327   -2.9701 O   0  0  0  0  0  0  0  0  0  0  0  0
   -3.6382    0.3329   -1.2741 O   0  0  0  0  0  0  0  0  0  0  0  0
    1.8033   -0.0601   -3.9875 F   0  0  0  0  0 15  0  0  0  0  0  0
    2.0436   -1.5783   -0.3092 H   0  0  0  0  0  0  0  0  0  0  0  0
   -0.1240   -2.2757    0.8573 H   0  0  0  0  0  0  0  0  0  0  0  0
   -2.2873   -1.2899    0.0919 H   0  0  0  0  0  0  0  0  0  0  0  0
    1.7438    1.5098    3.2091 C   0  0  0  0  0  0  0  0  0  0  0  0
    1.8928    0.5369    3.6875 H   0  0  0  0  0  0  0  0  0  0  0  0
    0.9996    2.0521    3.8010 H   0  0  0  0  0  0  0  0  0  0  0  0
    2.6866    2.0602    3.2861 H   0  0  0  0  0  0  0  0  0  0  0  0
    1.2160    1.3207    1.4677 S   0  0  0  0  0  1  0  0  0  0  0  0
  1  2  2  0  0  0  0
  1  6  1  0  0  0  0
  2  3  1  0  0  0  0
  3 11  1  0  0  0  0
  3  4  2  0  0  0  0
  4 12  1  0  0  0  0
  5  4  1  0  0  0  0
  5 13  1  0  0  0  0
  6  5  2  0  0  0  0
  7  6  1  0  0  0  0
  7  9  2  0  0  0  0
  8  7  2  0  0  0  0
 14 17  1  0  0  0  0
 14 15  1  0  0  0  0
 14 16  1  0  0  0  0
 18 14  1  0  0  0  0
M  END
$$$$
Coordinates from ORCA-job TS_search_opt_without_h_MEP E -990.119320465280
 OpenBabel09152311013D

 18 16  0  0  0  0  0  0  0  0999 V2000
   -0.2450    0.1145   -1.8431 C   0  0  0  0  0  3  0  0  0  0  0  0
    0.8048   -0.3678   -1.6226 N   0  0  0  0  0  0  0  0  0  0  0  0
    1.0034   -1.3385   -0.6942 C   0  0  0  0  0  0  0  0  0  0  0  0
   -0.1725   -1.7232   -0.0705 C   0  0  0  0  0  0  0  0  0  0  0  0
   -1.3975   -1.1189   -0.3833 C   0  0  0  0  0  0  0  0  0  0  0  0
   -1.4937   -0.1119   -1.3389 C   0  0  0  0  0  0  0  0  0  0  0  0
   -2.7121    0.5738   -1.7243 N   0  0  0  0  0  0  0  0  0  0  0  0
   -2.6343    1.3449   -2.6562 O   0  0  0  0  0  0  0  0  0  0  0  0
   -3.7093    0.3205   -1.0883 O   0  0  0  0  0  0  0  0  0  0  0  0
    2.7050    0.0426   -3.4392 F   0  0  0  0  0 15  0  0  0  0  0  0
    1.9920   -1.7390   -0.5191 H   0  0  0  0  0  0  0  0  0  0  0  0
   -0.1304   -2.4963    0.6886 H   0  0  0  0  0  0  0  0  0  0  0  0
   -2.3115   -1.4187    0.1217 H   0  0  0  0  0  0  0  0  0  0  0  0
    1.6961    1.5960    3.0323 C   0  0  0  0  0  0  0  0  0  0  0  0
    1.7135    0.6293    3.5451 H   0  0  0  0  0  0  0  0  0  0  0  0
    1.0394    2.2567    3.6068 H   0  0  0  0  0  0  0  0  0  0  0  0
    2.7070    2.0127    3.0900 H   0  0  0  0  0  0  0  0  0  0  0  0
    1.1451    1.4234    1.2953 S   0  0  0  0  0  1  0  0  0  0  0  0
  1  2  2  0  0  0  0
  1  6  1  0  0  0  0
  2  3  1  0  0  0  0
  3 11  1  0  0  0  0
  3  4  2  0  0  0  0
  4 12  1  0  0  0  0
  5  4  1  0  0  0  0
  5 13  1  0  0  0  0
  6  5  2  0  0  0  0
  7  6  1  0  0  0  0
  7  9  2  0  0  0  0
  8  7  2  0  0  0  0
 14 17  1  0  0  0  0
 14 15  1  0  0  0  0
 14 16  1  0  0  0  0
 18 14  1  0  0  0  0
M  END
$$$$
Coordinates from ORCA-job TS_search_opt_without_h_MEP E -990.119599814711
 OpenBabel09152311013D

 18 16  0  0  0  0  0  0  0  0999 V2000
   -0.2869    0.0398   -1.8183 C   0  0  0  0  0  3  0  0  0  0  0  0
    0.7471   -0.5116   -1.7026 N   0  0  0  0  0  0  0  0  0  0  0  0
    0.9309   -1.5287   -0.8165 C   0  0  0  0  0  0  0  0  0  0  0  0
   -0.2216   -1.8531   -0.1234 C   0  0  0  0  0  0  0  0  0  0  0  0
   -1.4257   -1.1662   -0.3447 C   0  0  0  0  0  0  0  0  0  0  0  0
   -1.5231   -0.1322   -1.2693 C   0  0  0  0  0  0  0  0  0  0  0  0
   -2.7244    0.6226   -1.5774 N   0  0  0  0  0  0  0  0  0  0  0  0
   -2.6170    1.5057   -2.3997 O   0  0  0  0  0  0  0  0  0  0  0  0
   -3.7352    0.3052   -0.9957 O   0  0  0  0  0  0  0  0  0  0  0  0
    3.2896    0.5287   -2.6312 F   0  0  0  0  0 15  0  0  0  0  0  0
    1.8957   -2.0089   -0.7325 H   0  0  0  0  0  0  0  0  0  0  0  0
   -0.1848   -2.6527    0.6074 H   0  0  0  0  0  0  0  0  0  0  0  0
   -2.3231   -1.4196    0.2143 H   0  0  0  0  0  0  0  0  0  0  0  0
    1.6780    1.6677    2.8342 C   0  0  0  0  0  0  0  0  0  0  0  0
    1.6202    0.7278    3.3935 H   0  0  0  0  0  0  0  0  0  0  0  0
    1.1183    2.4183    3.4006 H   0  0  0  0  0  0  0  0  0  0  0  0
    2.7273    1.9787    2.8312 H   0  0  0  0  0  0  0  0  0  0  0  0
    1.0347    1.4784    1.1302 S   0  0  0  0  0  1  0  0  0  0  0  0
  1  2  2  0  0  0  0
  1  6  1  0  0  0  0
  2  3  1  0  0  0  0
  3 11  1  0  0  0  0
  3  4  2  0  0  0  0
  4 12  1  0  0  0  0
  5  4  1  0  0  0  0
  5 13  1  0  0  0  0
  6  5  2  0  0  0  0
  7  6  1  0  0  0  0
  7  9  2  0  0  0  0
  8  7  2  0  0  0  0
 14 15  1  0  0  0  0
 14 16  1  0  0  0  0
 17 14  1  0  0  0  0
 18 14  1  0  0  0  0
M  END
$$$$
Coordinates from ORCA-job TS_search_opt_without_h_MEP E -990.118520585794
 OpenBabel09152311013D

 18 16  0  0  0  0  0  0  0  0999 V2000
   -0.3133   -0.0116   -1.8545 C   0  0  0  0  0  3  0  0  0  0  0  0
    0.6883   -0.6369   -1.8949 N   0  0  0  0  0  0  0  0  0  0  0  0
    0.8704   -1.7098   -1.0693 C   0  0  0  0  0  0  0  0  0  0  0  0
   -0.1978   -1.9373   -0.2230 C   0  0  0  0  0  0  0  0  0  0  0  0
   -1.3618   -1.1545   -0.2885 C   0  0  0  0  0  0  0  0  0  0  0  0
   -1.4969   -0.1047   -1.1929 C   0  0  0  0  0  0  0  0  0  0  0  0
   -2.7083    0.6639   -1.4201 N   0  0  0  0  0  0  0  0  0  0  0  0
   -2.5882    1.7224   -1.9938 O   0  0  0  0  0  0  0  0  0  0  0  0
   -3.7408    0.1698   -1.0329 O   0  0  0  0  0  0  0  0  0  0  0  0
    3.6851    0.5074   -1.8437 F   0  0  0  0  0 15  0  0  0  0  0  0
    1.7730   -2.2990   -1.1459 H   0  0  0  0  0  0  0  0  0  0  0  0
   -0.1446   -2.7608    0.4789 H   0  0  0  0  0  0  0  0  0  0  0  0
   -2.2139   -1.3651    0.3540 H   0  0  0  0  0  0  0  0  0  0  0  0
    1.6132    1.7933    2.7316 C   0  0  0  0  0  0  0  0  0  0  0  0
    1.5622    0.8617    3.3057 H   0  0  0  0  0  0  0  0  0  0  0  0
    1.2187    2.5885    3.3697 H   0  0  0  0  0  0  0  0  0  0  0  0
    2.6733    2.0110    2.5615 H   0  0  0  0  0  0  0  0  0  0  0  0
    0.6816    1.6615    1.1581 S   0  0  0  0  0  1  0  0  0  0  0  0
  1  6  1  0  0  0  0
  2  1  2  0  0  0  0
  2  3  1  0  0  0  0
  3  4  2  0  0  0  0
  4 12  1  0  0  0  0
  5  4  1  0  0  0  0
  5 13  1  0  0  0  0
  6  5  2  0  0  0  0
  7  6  1  0  0  0  0
  7  9  2  0  0  0  0
  8  7  2  0  0  0  0
 11  3  1  0  0  0  0
 14 15  1  0  0  0  0
 14 16  1  0  0  0  0
 17 14  1  0  0  0  0
 18 14  1  0  0  0  0
M  END
$$$$
Coordinates from ORCA-job TS_search_opt_without_h_MEP E -990.119614269345
 OpenBabel09152311013D

 18 16  0  0  0  0  0  0  0  0999 V2000
   -0.2673    0.1026   -1.6747 C   0  0  0  0  0  3  0  0  0  0  0  0
    0.7170   -0.5399   -1.8102 N   0  0  0  0  0  0  0  0  0  0  0  0
    0.8779   -1.7146   -1.1367 C   0  0  0  0  0  0  0  0  0  0  0  0
   -0.1986   -2.0394   -0.3310 C   0  0  0  0  0  0  0  0  0  0  0  0
   -1.3595   -1.2503   -0.3155 C   0  0  0  0  0  0  0  0  0  0  0  0
   -1.4698   -0.0860   -1.0667 C   0  0  0  0  0  0  0  0  0  0  0  0
   -2.6770    0.7027   -1.2145 N   0  0  0  0  0  0  0  0  0  0  0  0
   -2.5508    1.8449   -1.5926 O   0  0  0  0  0  0  0  0  0  0  0  0
   -3.7192    0.1423   -0.9700 O   0  0  0  0  0  0  0  0  0  0  0  0
    3.8986    0.2417   -1.3856 F   0  0  0  0  0 15  0  0  0  0  0  0
    1.7662   -2.3088   -1.2957 H   0  0  0  0  0  0  0  0  0  0  0  0
   -0.1621   -2.9514    0.2546 H   0  0  0  0  0  0  0  0  0  0  0  0
   -2.2242   -1.5392    0.2765 H   0  0  0  0  0  0  0  0  0  0  0  0
    1.5398    1.8818    2.5590 C   0  0  0  0  0  0  0  0  0  0  0  0
    1.3747    0.9661    3.1357 H   0  0  0  0  0  0  0  0  0  0  0  0
    1.2346    2.7218    3.1865 H   0  0  0  0  0  0  0  0  0  0  0  0
    2.6196    1.9731    2.3964 H   0  0  0  0  0  0  0  0  0  0  0  0
    0.6000    1.8525    0.9845 S   0  0  0  0  0  1  0  0  0  0  0  0
  1  6  1  0  0  0  0
  2  1  2  0  0  0  0
  2  3  1  0  0  0  0
  3  4  2  0  0  0  0
  4  5  1  0  0  0  0
  4 12  1  0  0  0  0
  5 13  1  0  0  0  0
  6  5  2  0  0  0  0
  7  6  1  0  0  0  0
  7  9  2  0  0  0  0
  8  7  2  0  0  0  0
 11  3  1  0  0  0  0
 14 15  1  0  0  0  0
 14 16  1  0  0  0  0
 17 14  1  0  0  0  0
 18 14  1  0  0  0  0
M  END
$$$$
Coordinates from ORCA-job TS_search_opt_without_h_MEP E -990.142551012189
 OpenBabel09152311013D

 18 16  0  0  0  0  0  0  0  0999 V2000
   -0.0726    0.3833   -1.1098 C   0  0  0  0  0  3  0  0  0  0  0  0
    0.8433   -0.3949   -1.4528 N   0  0  0  0  0  0  0  0  0  0  0  0
    0.8341   -1.6970   -1.1270 C   0  0  0  0  0  0  0  0  0  0  0  0
   -0.2432   -2.1253   -0.3663 C   0  0  0  0  0  0  0  0  0  0  0  0
   -1.3884   -1.3278   -0.3376 C   0  0  0  0  0  0  0  0  0  0  0  0
   -1.3802   -0.0602   -0.8979 C   0  0  0  0  0  0  0  0  0  0  0  0
   -2.5938    0.7046   -1.0999 N   0  0  0  0  0  0  0  0  0  0  0  0
   -2.4903    1.8555   -1.4826 O   0  0  0  0  0  0  0  0  0  0  0  0
   -3.6550    0.1298   -0.9438 O   0  0  0  0  0  0  0  0  0  0  0  0
    4.0058    0.2195   -1.2948 F   0  0  0  0  0 15  0  0  0  0  0  0
    1.6874   -2.3095   -1.3922 H   0  0  0  0  0  0  0  0  0  0  0  0
   -0.2068   -3.0655    0.1650 H   0  0  0  0  0  0  0  0  0  0  0  0
   -2.2892   -1.6484    0.1752 H   0  0  0  0  0  0  0  0  0  0  0  0
    1.4798    1.8126    2.3307 C   0  0  0  0  0  0  0  0  0  0  0  0
    1.2598    0.9262    2.9339 H   0  0  0  0  0  0  0  0  0  0  0  0
    1.1614    2.6764    2.9385 H   0  0  0  0  0  0  0  0  0  0  0  0
    2.5628    1.9044    2.2171 H   0  0  0  0  0  0  0  0  0  0  0  0
    0.4851    2.0162    0.7444 S   0  0  0  0  0  1  0  0  0  0  0  0
  1  6  1  0  0  0  0
  2  3  1  0  0  0  0
  2  1  2  0  0  0  0
  3  4  2  0  0  0  0
  4  5  1  0  0  0  0
  4 12  1  0  0  0  0
  5 13  1  0  0  0  0
  6  5  2  0  0  0  0
  7  9  2  0  0  0  0
  7  6  1  0  0  0  0
  8  7  2  0  0  0  0
 11  3  1  0  0  0  0
 14 15  1  0  0  0  0
 14 16  1  0  0  0  0
 17 14  1  0  0  0  0
 18 14  1  0  0  0  0
M  END
$$$$
Coordinates from ORCA-job TS_search_opt_without_h_MEP E -990.245326125259
 OpenBabel09152311013D

 18 17  0  0  0  0  0  0  0  0999 V2000
    0.0200    0.5147   -0.6106 C   0  0  0  0  0  0  0  0  0  0  0  0
    0.9643   -0.2782   -1.0688 N   0  0  0  0  0  0  0  0  0  0  0  0
    0.8279   -1.6066   -1.0784 C   0  0  0  0  0  0  0  0  0  0  0  0
   -0.2686   -2.1768   -0.4456 C   0  0  0  0  0  0  0  0  0  0  0  0
   -1.3881   -1.3712   -0.3387 C   0  0  0  0  0  0  0  0  0  0  0  0
   -1.2930   -0.0192   -0.6273 C   0  0  0  0  0  0  0  0  0  0  0  0
   -2.5202    0.7253   -0.8933 N   0  0  0  0  0  0  0  0  0  0  0  0
   -2.4326    1.8972   -1.2130 O   0  0  0  0  0  0  0  0  0  0  0  0
   -3.5757    0.1144   -0.8731 O   0  0  0  0  0  0  0  0  0  0  0  0
    4.2014    0.0993   -1.0290 F   0  0  0  0  0 15  0  0  0  0  0  0
    1.6346   -2.2027   -1.4987 H   0  0  0  0  0  0  0  0  0  0  0  0
   -0.2519   -3.1861   -0.0627 H   0  0  0  0  0  0  0  0  0  0  0  0
   -2.3334   -1.7475    0.0295 H   0  0  0  0  0  0  0  0  0  0  0  0
    1.3630    1.7805    2.0545 C   0  0  0  0  0  0  0  0  0  0  0  0
    1.0535    0.9348    2.6729 H   0  0  0  0  0  0  0  0  0  0  0  0
    1.0860    2.6867    2.6128 H   0  0  0  0  0  0  0  0  0  0  0  0
    2.4534    1.7905    1.9712 H   0  0  0  0  0  0  0  0  0  0  0  0
    0.4593    2.0448    0.3984 S   0  0  0  0  0  0  0  0  0  0  0  0
  1 18  1  0  0  0  0
  2  1  2  0  0  0  0
  3  2  1  0  0  0  0
  3  4  2  0  0  0  0
  4  5  1  0  0  0  0
  4 12  1  0  0  0  0
  5 13  1  0  0  0  0
  6  1  1  0  0  0  0
  6  5  2  0  0  0  0
  7  9  2  0  0  0  0
  7  6  1  0  0  0  0
  8  7  2  0  0  0  0
 11  3  1  0  0  0  0
 14 16  1  0  0  0  0
 14 15  1  0  0  0  0
 17 14  1  0  0  0  0
 18 14  1  0  0  0  0
M  END
$$$$
Coordinates from ORCA-job TS_search_opt_without_h_MEP E -990.305489837960
 OpenBabel09152311013D

 18 17  0  0  0  0  0  0  0  0999 V2000
    0.2231    0.3479   -0.6162 C   0  0  0  0  0  0  0  0  0  0  0  0
    1.1578   -0.4546   -1.1235 N   0  0  0  0  0  0  0  0  0  0  0  0
    0.8712   -1.7389   -1.3448 C   0  0  0  0  0  0  0  0  0  0  0  0
   -0.3646   -2.3072   -1.0790 C   0  0  0  0  0  0  0  0  0  0  0  0
   -1.3536   -1.4929   -0.5620 C   0  0  0  0  0  0  0  0  0  0  0  0
   -1.0467   -0.1619   -0.3260 C   0  0  0  0  0  0  0  0  0  0  0  0
   -2.1315    0.6506    0.2410 N   0  0  0  0  0  0  0  0  0  0  0  0
   -1.8835    1.4229    1.1407 O   0  0  0  0  0  0  0  0  0  0  0  0
   -3.2446    0.4798   -0.2214 O   0  0  0  0  0  0  0  0  0  0  0  0
    3.8177    0.0032    1.3328 F   0  0  0  0  0 15  0  0  0  0  0  0
    1.6778   -2.3411   -1.7509 H   0  0  0  0  0  0  0  0  0  0  0  0
   -0.5456   -3.3571   -1.2731 H   0  0  0  0  0  0  0  0  0  0  0  0
   -2.3438   -1.8705   -0.3338 H   0  0  0  0  0  0  0  0  0  0  0  0
    1.0529    2.1560    1.3346 C   0  0  0  0  0  0  0  0  0  0  0  0
    0.1664    1.9555    1.9298 H   0  0  0  0  0  0  0  0  0  0  0  0
    1.3891    3.1795    1.5120 H   0  0  0  0  0  0  0  0  0  0  0  0
    1.8650    1.4667    1.5802 H   0  0  0  0  0  0  0  0  0  0  0  0
    0.6928    2.0622   -0.4406 S   0  0  0  0  0  0  0  0  0  0  0  0
  1 18  1  0  0  0  0
  1  6  1  0  0  0  0
  2  1  2  0  0  0  0
  3  2  1  0  0  0  0
  3  4  2  0  0  0  0
  4  5  1  0  0  0  0
  5 13  1  0  0  0  0
  5  6  2  0  0  0  0
  6  7  1  0  0  0  0
  7  8  2  0  0  0  0
  9  7  2  0  0  0  0
 11  3  1  0  0  0  0
 12  4  1  0  0  0  0
 14 16  1  0  0  0  0
 14 17  1  0  0  0  0
 14 15  1  0  0  0  0
 18 14  1  0  0  0  0
M  END
$$$$
