Coordinates from ORCA-job TS_search_opt_without_h_MEP E -990.267579386706
 OpenBabel09152311013D

 18 17  0  0  0  0  0  0  0  0999 V2000
    2.0188    1.0687    1.0688 C   0  0  0  0  0  0  0  0  0  0  0  0
    3.1412    0.8809    1.6938 N   0  0  0  0  0  0  0  0  0  0  0  0
    3.2116    0.8700    3.0246 C   0  0  0  0  0  0  0  0  0  0  0  0
    2.1036    1.0541    3.8216 C   0  0  0  0  0  0  0  0  0  0  0  0
    0.8977    1.2556    3.1821 C   0  0  0  0  0  0  0  0  0  0  0  0
    0.8255    1.2670    1.7975 C   0  0  0  0  0  0  0  0  0  0  0  0
   -0.4372    1.4789    1.1372 N   0  0  0  0  0  0  0  0  0  0  0  0
   -0.5198    1.4934   -0.1080 O   0  0  0  0  0  0  0  0  0  0  0  0
   -1.4099    1.6411    1.8475 O   0  0  0  0  0  0  0  0  0  0  0  0
    2.0214    1.0692   -0.2812 F   0  0  0  0  0  0  0  0  0  0  0  0
    4.1965    0.7079    3.4488 H   0  0  0  0  0  0  0  0  0  0  0  0
    2.1730    1.0428    4.9013 H   0  0  0  0  0  0  0  0  0  0  0  0
   -0.0101    1.4068    3.7514 H   0  0  0  0  0  0  0  0  0  0  0  0
   -3.7319   -3.1117   -5.9379 C   0  0  0  0  0  0  0  0  0  0  0  0
   -3.2101   -3.5652   -6.7851 H   0  0  0  0  0  0  0  0  0  0  0  0
   -4.4771   -2.4060   -6.3152 H   0  0  0  0  0  0  0  0  0  0  0  0
   -4.2396   -3.8979   -5.3719 H   0  0  0  0  0  0  0  0  0  0  0  0
   -2.5535   -2.2557   -4.8753 S   0  0  0  0  0  1  0  0  0  0  0  0
  1  2  2  0  0  0  0
  1  6  1  0  0  0  0
  2  3  1  0  0  0  0
  3 11  1  0  0  0  0
  3  4  2  0  0  0  0
  4 12  1  0  0  0  0
  5 13  1  0  0  0  0
  5  4  1  0  0  0  0
  6  5  2  0  0  0  0
  7  6  1  0  0  0  0
  7  9  2  0  0  0  0
  8  7  2  0  0  0  0
 10  1  1  0  0  0  0
 14 17  1  0  0  0  0
 14 18  1  0  0  0  0
 15 14  1  0  0  0  0
 16 14  1  0  0  0  0
M  END
$$$$
Coordinates from ORCA-job TS_search_opt_without_h_MEP E -990.273444331691
 OpenBabel09152311013D

 18 17  0  0  0  0  0  0  0  0999 V2000
    1.5703    0.5639    0.6605 C   0  0  0  0  0  0  0  0  0  0  0  0
    2.7504    0.3160    1.1565 N   0  0  0  0  0  0  0  0  0  0  0  0
    2.9376    0.5329    2.4644 C   0  0  0  0  0  0  0  0  0  0  0  0
    1.9428    0.9948    3.3090 C   0  0  0  0  0  0  0  0  0  0  0  0
    0.6916    1.2474    2.7720 C   0  0  0  0  0  0  0  0  0  0  0  0
    0.4975    1.0336    1.4167 C   0  0  0  0  0  0  0  0  0  0  0  0
   -0.8162    1.3054    0.8382 N   0  0  0  0  0  0  0  0  0  0  0  0
   -0.9116    1.4123   -0.3677 O   0  0  0  0  0  0  0  0  0  0  0  0
   -1.7527    1.4218    1.6050 O   0  0  0  0  0  0  0  0  0  0  0  0
    1.4338    0.3166   -0.6404 F   0  0  0  0  0  0  0  0  0  0  0  0
    3.9322    0.3220    2.8420 H   0  0  0  0  0  0  0  0  0  0  0  0
    2.1427    1.1532    4.3609 H   0  0  0  0  0  0  0  0  0  0  0  0
   -0.1275    1.6105    3.3808 H   0  0  0  0  0  0  0  0  0  0  0  0
   -2.9154   -2.4920   -4.8597 C   0  0  0  0  0  0  0  0  0  0  0  0
   -2.2970   -2.3938   -5.7571 H   0  0  0  0  0  0  0  0  0  0  0  0
   -3.8600   -1.9767   -5.0594 H   0  0  0  0  0  0  0  0  0  0  0  0
   -3.1446   -3.5550   -4.7389 H   0  0  0  0  0  0  0  0  0  0  0  0
   -2.0738   -1.8129   -3.3825 S   0  0  0  0  0  1  0  0  0  0  0  0
  1  2  2  0  0  0  0
  1  6  1  0  0  0  0
  2  3  1  0  0  0  0
  3 11  1  0  0  0  0
  3  4  2  0  0  0  0
  4 12  1  0  0  0  0
  5  4  1  0  0  0  0
  5 13  1  0  0  0  0
  6  5  2  0  0  0  0
  7  6  1  0  0  0  0
  7  9  2  0  0  0  0
  8  7  2  0  0  0  0
 10  1  1  0  0  0  0
 14 17  1  0  0  0  0
 14 18  1  0  0  0  0
 15 14  1  0  0  0  0
 16 14  1  0  0  0  0
M  END
$$$$
Coordinates from ORCA-job TS_search_opt_without_h_MEP E -990.273447511626
 OpenBabel09152311013D

 18 17  0  0  0  0  0  0  0  0999 V2000
    1.2290    0.2307    0.3633 C   0  0  0  0  0  0  0  0  0  0  0  0
    2.4039   -0.1059    0.8168 N   0  0  0  0  0  0  0  0  0  0  0  0
    2.7068    0.2292    2.0772 C   0  0  0  0  0  0  0  0  0  0  0  0
    1.8307    0.8951    2.9186 C   0  0  0  0  0  0  0  0  0  0  0  0
    0.5860    1.2473    2.4242 C   0  0  0  0  0  0  0  0  0  0  0  0
    0.2786    0.9189    1.1159 C   0  0  0  0  0  0  0  0  0  0  0  0
   -1.0210    1.2960    0.5697 N   0  0  0  0  0  0  0  0  0  0  0  0
   -1.1406    1.4073   -0.6292 O   0  0  0  0  0  0  0  0  0  0  0  0
   -1.9260    1.4949    1.3663 O   0  0  0  0  0  0  0  0  0  0  0  0
    0.9597   -0.1553   -0.8823 F   0  0  0  0  0  0  0  0  0  0  0  0
    3.6952   -0.0566    2.4189 H   0  0  0  0  0  0  0  0  0  0  0  0
    2.1173    1.1321    3.9350 H   0  0  0  0  0  0  0  0  0  0  0  0
   -0.1398    1.7794    3.0296 H   0  0  0  0  0  0  0  0  0  0  0  0
   -2.3110   -2.0280   -4.0245 C   0  0  0  0  0  0  0  0  0  0  0  0
   -2.1893   -0.9457   -4.1243 H   0  0  0  0  0  0  0  0  0  0  0  0
   -3.2229   -2.3013   -4.5638 H   0  0  0  0  0  0  0  0  0  0  0  0
   -1.4718   -2.4998   -4.5434 H   0  0  0  0  0  0  0  0  0  0  0  0
   -2.3846   -2.5384   -2.2681 S   0  0  0  0  0  1  0  0  0  0  0  0
  1  2  2  0  0  0  0
  1  6  1  0  0  0  0
  2  3  1  0  0  0  0
  3 11  1  0  0  0  0
  3  4  2  0  0  0  0
  4 12  1  0  0  0  0
  5  4  1  0  0  0  0
  5 13  1  0  0  0  0
  6  5  2  0  0  0  0
  7  6  1  0  0  0  0
  7  9  2  0  0  0  0
  8  7  2  0  0  0  0
 10  1  1  0  0  0  0
 14 18  1  0  0  0  0
 15 14  1  0  0  0  0
 16 14  1  0  0  0  0
 17 14  1  0  0  0  0
M  END
$$$$
Coordinates from ORCA-job TS_search_opt_without_h_MEP E -990.273787352924
 OpenBabel09152311013D

 18 17  0  0  0  0  0  0  0  0999 V2000
    0.9344    0.2592   -0.1402 C   0  0  0  0  0  0  0  0  0  0  0  0
    2.0044   -0.3466    0.2984 N   0  0  0  0  0  0  0  0  0  0  0  0
    2.2984   -0.2442    1.6008 C   0  0  0  0  0  0  0  0  0  0  0  0
    1.5705    0.5359    2.4837 C   0  0  0  0  0  0  0  0  0  0  0  0
    0.3857    1.0920    2.0309 C   0  0  0  0  0  0  0  0  0  0  0  0
    0.0315    0.9073    0.7039 C   0  0  0  0  0  0  0  0  0  0  0  0
   -1.2888    1.3377    0.2607 N   0  0  0  0  0  0  0  0  0  0  0  0
   -1.4814    1.5496   -0.9169 O   0  0  0  0  0  0  0  0  0  0  0  0
   -2.1485    1.4443    1.1189 O   0  0  0  0  0  0  0  0  0  0  0  0
    0.7737    0.2667   -1.4561 F   0  0  0  0  0  0  0  0  0  0  0  0
    3.1614   -0.8080    1.9392 H   0  0  0  0  0  0  0  0  0  0  0  0
    1.9067    0.6831    3.5018 H   0  0  0  0  0  0  0  0  0  0  0  0
   -0.2604    1.6665    2.6845 H   0  0  0  0  0  0  0  0  0  0  0  0
   -1.5918   -1.6317   -2.9375 C   0  0  0  0  0  0  0  0  0  0  0  0
   -1.6433   -0.5421   -3.0450 H   0  0  0  0  0  0  0  0  0  0  0  0
   -2.5279   -2.0394   -3.3300 H   0  0  0  0  0  0  0  0  0  0  0  0
   -0.7909   -1.9813   -3.5982 H   0  0  0  0  0  0  0  0  0  0  0  0
   -1.3340   -2.1489   -1.1988 S   0  0  0  0  0  1  0  0  0  0  0  0
  1  2  2  0  0  0  0
  1  6  1  0  0  0  0
  2  3  1  0  0  0  0
  3 11  1  0  0  0  0
  3  4  2  0  0  0  0
  4 12  1  0  0  0  0
  5  4  1  0  0  0  0
  5 13  1  0  0  0  0
  6  5  2  0  0  0  0
  7  6  1  0  0  0  0
  7  9  2  0  0  0  0
  8  7  2  0  0  0  0
 10  1  1  0  0  0  0
 14 18  1  0  0  0  0
 15 14  1  0  0  0  0
 16 14  1  0  0  0  0
 17 14  1  0  0  0  0
M  END
$$$$
Coordinates from ORCA-job TS_search_opt_without_h_MEP E -990.264396196117
 OpenBabel09152311013D

 18 17  0  0  0  0  0  0  0  0999 V2000
    0.8017    0.1544   -0.2177 C   0  0  0  0  0  0  0  0  0  0  0  0
    1.8512   -0.4924    0.2197 N   0  0  0  0  0  0  0  0  0  0  0  0
    2.1812   -0.3710    1.5090 C   0  0  0  0  0  0  0  0  0  0  0  0
    1.5240    0.4739    2.3878 C   0  0  0  0  0  0  0  0  0  0  0  0
    0.3454    1.0574    1.9529 C   0  0  0  0  0  0  0  0  0  0  0  0
   -0.0583    0.8509    0.6441 C   0  0  0  0  0  0  0  0  0  0  0  0
   -1.3672    1.3239    0.2446 N   0  0  0  0  0  0  0  0  0  0  0  0
   -1.6178    1.4437   -0.9429 O   0  0  0  0  0  0  0  0  0  0  0  0
   -2.1798    1.5510    1.1251 O   0  0  0  0  0  0  0  0  0  0  0  0
    0.7885    0.3870   -1.5335 F   0  0  0  0  0  0  0  0  0  0  0  0
    3.0457   -0.9422    1.8332 H   0  0  0  0  0  0  0  0  0  0  0  0
    1.9193    0.6680    3.3767 H   0  0  0  0  0  0  0  0  0  0  0  0
   -0.2508    1.6899    2.5992 H   0  0  0  0  0  0  0  0  0  0  0  0
   -1.4203   -1.5267   -2.7572 C   0  0  0  0  0  0  0  0  0  0  0  0
   -1.5397   -0.4513   -2.9349 H   0  0  0  0  0  0  0  0  0  0  0  0
   -2.3678   -2.0053   -3.0138 H   0  0  0  0  0  0  0  0  0  0  0  0
   -0.6683   -1.8904   -3.4659 H   0  0  0  0  0  0  0  0  0  0  0  0
   -0.9870   -1.9208   -1.0265 S   0  0  0  0  0  1  0  0  0  0  0  0
  1  2  2  0  0  0  0
  1  6  1  0  0  0  0
  2  3  1  0  0  0  0
  3 11  1  0  0  0  0
  3  4  2  0  0  0  0
  4 12  1  0  0  0  0
  5  4  1  0  0  0  0
  5 13  1  0  0  0  0
  6  5  2  0  0  0  0
  7  6  1  0  0  0  0
  7  9  2  0  0  0  0
  8  7  2  0  0  0  0
 10  1  1  0  0  0  0
 14 18  1  0  0  0  0
 15 14  1  0  0  0  0
 16 14  1  0  0  0  0
 17 14  1  0  0  0  0
M  END
$$$$
Coordinates from ORCA-job TS_search_opt_without_h_MEP E -990.258888696913
 OpenBabel09152311013D

 18 17  0  0  0  0  0  0  0  0999 V2000
    0.6990    0.0306   -0.2475 C   0  0  0  0  0  0  0  0  0  0  0  0
    1.7948   -0.5737    0.2182 N   0  0  0  0  0  0  0  0  0  0  0  0
    2.1548   -0.3933    1.4841 C   0  0  0  0  0  0  0  0  0  0  0  0
    1.5130    0.4684    2.3707 C   0  0  0  0  0  0  0  0  0  0  0  0
    0.3383    1.0491    1.9367 C   0  0  0  0  0  0  0  0  0  0  0  0
   -0.0942    0.8207    0.6373 C   0  0  0  0  0  0  0  0  0  0  0  0
   -1.3782    1.3135    0.2505 N   0  0  0  0  0  0  0  0  0  0  0  0
   -1.6420    1.4194   -0.9362 O   0  0  0  0  0  0  0  0  0  0  0  0
   -2.1910    1.5810    1.1335 O   0  0  0  0  0  0  0  0  0  0  0  0
    0.8331    0.4357   -1.5439 F   0  0  0  0  0  0  0  0  0  0  0  0
    3.0380   -0.9383    1.8078 H   0  0  0  0  0  0  0  0  0  0  0  0
    1.9264    0.6759    3.3499 H   0  0  0  0  0  0  0  0  0  0  0  0
   -0.2420    1.7035    2.5780 H   0  0  0  0  0  0  0  0  0  0  0  0
   -1.3784   -1.4942   -2.7289 C   0  0  0  0  0  0  0  0  0  0  0  0
   -1.5361   -0.4335   -2.9442 H   0  0  0  0  0  0  0  0  0  0  0  0
   -2.3260   -2.0082   -2.9205 H   0  0  0  0  0  0  0  0  0  0  0  0
   -0.6494   -1.8788   -3.4488 H   0  0  0  0  0  0  0  0  0  0  0  0
   -0.8600   -1.7777   -0.9965 S   0  0  0  0  0  1  0  0  0  0  0  0
  1  2  2  0  0  0  0
  1  6  1  0  0  0  0
  2  3  1  0  0  0  0
  3 11  1  0  0  0  0
  3  4  2  0  0  0  0
  4 12  1  0  0  0  0
  5  4  1  0  0  0  0
  5 13  1  0  0  0  0
  6  5  2  0  0  0  0
  7  6  1  0  0  0  0
  7  9  2  0  0  0  0
  8  7  2  0  0  0  0
 10  1  1  0  0  0  0
 14 18  1  0  0  0  0
 15 14  1  0  0  0  0
 16 14  1  0  0  0  0
 17 14  1  0  0  0  0
M  END
$$$$
Coordinates from ORCA-job TS_search_opt_without_h_MEP E -990.263812676033
 OpenBabel09152311013D

 18 17  0  0  0  0  0  0  0  0999 V2000
    0.6239   -0.0510   -0.2851 C   0  0  0  0  0  0  0  0  0  0  0  0
    1.7614   -0.6270    0.2237 N   0  0  0  0  0  0  0  0  0  0  0  0
    2.1478   -0.3944    1.4664 C   0  0  0  0  0  0  0  0  0  0  0  0
    1.5026    0.4678    2.3664 C   0  0  0  0  0  0  0  0  0  0  0  0
    0.3373    1.0494    1.9284 C   0  0  0  0  0  0  0  0  0  0  0  0
   -0.1147    0.7991    0.6297 C   0  0  0  0  0  0  0  0  0  0  0  0
   -1.3785    1.3035    0.2572 N   0  0  0  0  0  0  0  0  0  0  0  0
   -1.6504    1.4146   -0.9339 O   0  0  0  0  0  0  0  0  0  0  0  0
   -2.1972    1.5956    1.1375 O   0  0  0  0  0  0  0  0  0  0  0  0
    0.8543    0.4622   -1.5570 F   0  0  0  0  0  0  0  0  0  0  0  0
    3.0413   -0.9331    1.7955 H   0  0  0  0  0  0  0  0  0  0  0  0
    1.9275    0.6765    3.3389 H   0  0  0  0  0  0  0  0  0  0  0  0
   -0.2400    1.7103    2.5727 H   0  0  0  0  0  0  0  0  0  0  0  0
   -1.3522   -1.4734   -2.7126 C   0  0  0  0  0  0  0  0  0  0  0  0
   -1.5347   -0.4218   -2.9481 H   0  0  0  0  0  0  0  0  0  0  0  0
   -2.3013   -2.0051   -2.8729 H   0  0  0  0  0  0  0  0  0  0  0  0
   -0.6391   -1.8750   -3.4401 H   0  0  0  0  0  0  0  0  0  0  0  0
   -0.7879   -1.6982   -0.9670 S   0  0  0  0  0  1  0  0  0  0  0  0
  1  2  2  0  0  0  0
  1  6  1  0  0  0  0
  2  3  1  0  0  0  0
  3 11  1  0  0  0  0
  3  4  2  0  0  0  0
  4 12  1  0  0  0  0
  5  4  1  0  0  0  0
  5 13  1  0  0  0  0
  6  5  2  0  0  0  0
  7  6  1  0  0  0  0
  7  9  2  0  0  0  0
  8  7  2  0  0  0  0
 10  1  1  0  0  0  0
 14 18  1  0  0  0  0
 15 14  1  0  0  0  0
 16 14  1  0  0  0  0
 17 14  1  0  0  0  0
M  END
$$$$
Coordinates from ORCA-job TS_search_opt_without_h_MEP E -990.280463684653
 OpenBabel09152311013D

 18 18  0  0  1  0  0  0  0  0999 V2000
    0.5047   -0.1753   -0.3306 C   0  0  1  0  0  0  0  0  0  0  0  0
    1.6861   -0.7519    0.2177 N   0  0  0  0  0  0  0  0  0  0  0  0
    2.1094   -0.4264    1.4140 C   0  0  0  0  0  0  0  0  0  0  0  0
    1.4895    0.4674    2.3207 C   0  0  0  0  0  0  0  0  0  0  0  0
    0.3216    1.0355    1.8994 C   0  0  0  0  0  0  0  0  0  0  0  0
   -0.1728    0.7514    0.6143 C   0  0  2  0  0  3  0  0  0  0  0  0
   -1.4024    1.2875    0.2646 N   0  0  0  0  0  0  0  0  0  0  0  0
   -1.7027    1.3829   -0.9330 O   0  0  0  0  0  0  0  0  0  0  0  0
   -2.2043    1.6472    1.1468 O   0  0  0  0  0  0  0  0  0  0  0  0
    0.9064    0.4930   -1.5356 F   0  0  0  0  0  0  0  0  0  0  0  0
    3.0253   -0.9248    1.7396 H   0  0  0  0  0  0  0  0  0  0  0  0
    1.9313    0.6849    3.2838 H   0  0  0  0  0  0  0  0  0  0  0  0
   -0.2345    1.7205    2.5349 H   0  0  0  0  0  0  0  0  0  0  0  0
   -1.2751   -1.4077   -2.6610 C   0  0  0  0  0  0  0  0  0  0  0  0
   -1.5117   -0.3790   -2.9361 H   0  0  0  0  0  0  0  0  0  0  0  0
   -2.2122   -1.9805   -2.7243 H   0  0  0  0  0  0  0  0  0  0  0  0
   -0.5892   -1.8411   -3.3947 H   0  0  0  0  0  0  0  0  0  0  0  0
   -0.6694   -1.5835   -0.9205 S   0  0  0  0  0  0  0  0  0  0  0  0
  1 10  1  6  0  0  0
  1  2  1  0  0  0  0
  1  6  1  0  0  0  0
  2  3  2  0  0  0  0
  3 11  1  0  0  0  0
  3  4  1  0  0  0  0
  4 12  1  0  0  0  0
  5  4  2  0  0  0  0
  5 13  1  0  0  0  0
  6  7  1  1  0  0  0
  6  5  1  0  0  0  0
  7  9  2  0  0  0  0
  8  7  2  0  0  0  0
 14 18  1  0  0  0  0
 15 14  1  0  0  0  0
 16 14  1  0  0  0  0
 17 14  1  0  0  0  0
 18  1  1  0  0  0  0
M  END
$$$$
Coordinates from ORCA-job TS_search_opt_without_h_MEP E -990.301588437102
 OpenBabel09152311013D

 18 17  0  0  0  0  0  0  0  0999 V2000
    0.0418   -0.6694    0.1427 C   0  0  0  0  0  0  0  0  0  0  0  0
    1.2522   -1.1373    0.4371 N   0  0  0  0  0  0  0  0  0  0  0  0
    1.9847   -0.5125    1.3658 C   0  0  0  0  0  0  0  0  0  0  0  0
    1.5288    0.5649    2.1102 C   0  0  0  0  0  0  0  0  0  0  0  0
    0.2862    1.0887    1.8009 C   0  0  0  0  0  0  0  0  0  0  0  0
   -0.4226    0.4855    0.7782 C   0  0  0  0  0  0  0  0  0  0  0  0
   -1.6957    1.1017    0.3985 N   0  0  0  0  0  0  0  0  0  0  0  0
   -1.8973    1.2995   -0.7822 O   0  0  0  0  0  0  0  0  0  0  0  0
   -2.4638    1.4152    1.2858 O   0  0  0  0  0  0  0  0  0  0  0  0
    2.2801    0.7588   -2.6276 F   0  0  0  0  0 15  0  0  0  0  0  0
    2.9765   -0.9171    1.5422 H   0  0  0  0  0  0  0  0  0  0  0  0
    2.1301    0.9835    2.9081 H   0  0  0  0  0  0  0  0  0  0  0  0
   -0.1289    1.9413    2.3273 H   0  0  0  0  0  0  0  0  0  0  0  0
   -1.1593   -1.2210   -2.4748 C   0  0  0  0  0  0  0  0  0  0  0  0
   -1.3442   -0.1526   -2.5515 H   0  0  0  0  0  0  0  0  0  0  0  0
   -2.0272   -1.7559   -2.8643 H   0  0  0  0  0  0  0  0  0  0  0  0
   -0.2792   -1.5081   -3.0480 H   0  0  0  0  0  0  0  0  0  0  0  0
   -1.0622   -1.7653   -0.7483 S   0  0  0  0  0  0  0  0  0  0  0  0
  1  2  2  0  0  0  0
  1  6  1  0  0  0  0
  2  3  1  0  0  0  0
  3 11  1  0  0  0  0
  3  4  2  0  0  0  0
  4 12  1  0  0  0  0
  5  4  1  0  0  0  0
  5 13  1  0  0  0  0
  6  5  2  0  0  0  0
  7  6  1  0  0  0  0
  7  9  2  0  0  0  0
  8  7  2  0  0  0  0
 14 18  1  0  0  0  0
 15 14  1  0  0  0  0
 16 14  1  0  0  0  0
 17 14  1  0  0  0  0
 18  1  1  0  0  0  0
M  END
$$$$
Coordinates from ORCA-job TS_search_opt_without_h_MEP E -990.305449824195
 OpenBabel09152311013D

 18 17  0  0  0  0  0  0  0  0999 V2000
   -0.0577   -0.7144    0.1923 C   0  0  0  0  0  0  0  0  0  0  0  0
    1.2000   -1.0950    0.4136 N   0  0  0  0  0  0  0  0  0  0  0  0
    1.9552   -0.4017    1.2679 C   0  0  0  0  0  0  0  0  0  0  0  0
    1.5074    0.7129    1.9597 C   0  0  0  0  0  0  0  0  0  0  0  0
    0.2035    1.1212    1.7547 C   0  0  0  0  0  0  0  0  0  0  0  0
   -0.5730    0.4021    0.8593 C   0  0  0  0  0  0  0  0  0  0  0  0
   -1.9444    0.8936    0.6686 N   0  0  0  0  0  0  0  0  0  0  0  0
   -2.4011    0.9514   -0.4520 O   0  0  0  0  0  0  0  0  0  0  0  0
   -2.5465    1.2430    1.6675 O   0  0  0  0  0  0  0  0  0  0  0  0
    2.5072   -1.0523   -2.9938 F   0  0  0  0  0 15  0  0  0  0  0  0
    2.9725   -0.7578    1.3974 H   0  0  0  0  0  0  0  0  0  0  0  0
    2.1620    1.2437    2.6397 H   0  0  0  0  0  0  0  0  0  0  0  0
   -0.2130    1.9824    2.2650 H   0  0  0  0  0  0  0  0  0  0  0  0
   -0.9459   -0.8102   -2.4469 C   0  0  0  0  0  0  0  0  0  0  0  0
   -1.4466    0.1480   -2.3370 H   0  0  0  0  0  0  0  0  0  0  0  0
   -1.4744   -1.4168   -3.1851 H   0  0  0  0  0  0  0  0  0  0  0  0
    0.0924   -0.6857   -2.7658 H   0  0  0  0  0  0  0  0  0  0  0  0
   -0.9978   -1.7645   -0.9050 S   0  0  0  0  0  0  0  0  0  0  0  0
  1  2  2  0  0  0  0
  1  6  1  0  0  0  0
  2  3  1  0  0  0  0
  3 11  1  0  0  0  0
  3  4  2  0  0  0  0
  4 12  1  0  0  0  0
  5  4  1  0  0  0  0
  5 13  1  0  0  0  0
  6  5  2  0  0  0  0
  7  6  1  0  0  0  0
  7  9  2  0  0  0  0
  8  7  2  0  0  0  0
 14 15  1  0  0  0  0
 14 18  1  0  0  0  0
 16 14  1  0  0  0  0
 17 14  1  0  0  0  0
 18  1  1  0  0  0  0
M  END
$$$$
