Coordinates from ORCA-job TS_search_opt_without_h_MEP E -990.267653052316
 OpenBabel09152311013D

 18 17  0  0  0  0  0  0  0  0999 V2000
    2.2979   -1.4168    0.4004 C   0  0  0  0  0  0  0  0  0  0  0  0
    3.4200   -1.6021    1.0269 N   0  0  0  0  0  0  0  0  0  0  0  0
    3.4887   -1.6126    2.3578 C   0  0  0  0  0  0  0  0  0  0  0  0
    2.3793   -1.4308    3.1534 C   0  0  0  0  0  0  0  0  0  0  0  0
    1.1739   -1.2319    2.5123 C   0  0  0  0  0  0  0  0  0  0  0  0
    1.1033   -1.2208    1.1277 C   0  0  0  0  0  0  0  0  0  0  0  0
   -0.1590   -1.0117    0.4657 N   0  0  0  0  0  0  0  0  0  0  0  0
   -0.2401   -0.9976   -0.7795 O   0  0  0  0  0  0  0  0  0  0  0  0
   -1.1329   -0.8515    1.1748 O   0  0  0  0  0  0  0  0  0  0  0  0
    2.3021   -1.4165   -0.9496 F   0  0  0  0  0  0  0  0  0  0  0  0
    4.4732   -1.7729    2.7834 H   0  0  0  0  0  0  0  0  0  0  0  0
    2.4471   -1.4414    4.2331 H   0  0  0  0  0  0  0  0  0  0  0  0
    0.2650   -1.0825    3.0802 H   0  0  0  0  0  0  0  0  0  0  0  0
   -4.4687    3.4944   -4.1599 C   0  0  0  0  0  0  0  0  0  0  0  0
   -4.5571    3.4345   -5.2482 H   0  0  0  0  0  0  0  0  0  0  0  0
   -4.3142    4.5380   -3.8720 H   0  0  0  0  0  0  0  0  0  0  0  0
   -5.3968    3.1337   -3.7077 H   0  0  0  0  0  0  0  0  0  0  0  0
   -3.0818    2.4885   -3.5987 S   0  0  0  0  0  1  0  0  0  0  0  0
  1  2  2  0  0  0  0
  1  6  1  0  0  0  0
  2  3  1  0  0  0  0
  3 11  1  0  0  0  0
  3  4  2  0  0  0  0
  4 12  1  0  0  0  0
  5 13  1  0  0  0  0
  5  4  1  0  0  0  0
  6  5  2  0  0  0  0
  7  6  1  0  0  0  0
  7  9  2  0  0  0  0
  8  7  2  0  0  0  0
 10  1  1  0  0  0  0
 14 16  1  0  0  0  0
 14 17  1  0  0  0  0
 14 18  1  0  0  0  0
 15 14  1  0  0  0  0
M  END
$$$$
Coordinates from ORCA-job TS_search_opt_without_h_MEP E -990.270494777910
 OpenBabel09152311013D

 18 17  0  0  0  0  0  0  0  0999 V2000
    1.5820   -0.5825    0.0939 C   0  0  0  0  0  0  0  0  0  0  0  0
    2.8346   -0.6994    0.4383 N   0  0  0  0  0  0  0  0  0  0  0  0
    3.1131   -1.0623    1.6957 C   0  0  0  0  0  0  0  0  0  0  0  0
    2.1378   -1.2532    2.6597 C   0  0  0  0  0  0  0  0  0  0  0  0
    0.8132   -1.2032    2.2623 C   0  0  0  0  0  0  0  0  0  0  0  0
    0.5202   -0.9097    0.9395 C   0  0  0  0  0  0  0  0  0  0  0  0
   -0.8674   -1.0191    0.4961 N   0  0  0  0  0  0  0  0  0  0  0  0
   -1.1318   -0.7676   -0.6608 O   0  0  0  0  0  0  0  0  0  0  0  0
   -1.6903   -1.3942    1.3109 O   0  0  0  0  0  0  0  0  0  0  0  0
    1.3775   -0.0985   -1.1286 F   0  0  0  0  0  0  0  0  0  0  0  0
    4.1638   -1.1912    1.9307 H   0  0  0  0  0  0  0  0  0  0  0  0
    2.4047   -1.4604    3.6875 H   0  0  0  0  0  0  0  0  0  0  0  0
    0.0033   -1.3966    2.9558 H   0  0  0  0  0  0  0  0  0  0  0  0
   -3.1432    2.6888   -3.3272 C   0  0  0  0  0  0  0  0  0  0  0  0
   -4.0365    2.3412   -3.8571 H   0  0  0  0  0  0  0  0  0  0  0  0
   -2.8708    3.6609   -3.7527 H   0  0  0  0  0  0  0  0  0  0  0  0
   -3.4336    2.8634   -2.2851 H   0  0  0  0  0  0  0  0  0  0  0  0
   -1.7764    1.4833   -3.4590 S   0  0  0  0  0  1  0  0  0  0  0  0
  1  2  2  0  0  0  0
  1  6  1  0  0  0  0
  2  3  1  0  0  0  0
  3 11  1  0  0  0  0
  3  4  2  0  0  0  0
  4 12  1  0  0  0  0
  5  4  1  0  0  0  0
  5 13  1  0  0  0  0
  6  5  2  0  0  0  0
  7  6  1  0  0  0  0
  7  9  2  0  0  0  0
  8  7  2  0  0  0  0
 10  1  1  0  0  0  0
 14 17  1  0  0  0  0
 15 14  1  0  0  0  0
 16 14  1  0  0  0  0
 18 14  1  0  0  0  0
M  END
$$$$
Coordinates from ORCA-job TS_search_opt_without_h_MEP E -990.237345025721
 OpenBabel09152311013D

 18 17  0  0  0  0  0  0  0  0999 V2000
    1.3393   -0.3425    0.0085 C   0  0  0  0  0  0  0  0  0  0  0  0
    2.5754   -0.5824    0.2906 N   0  0  0  0  0  0  0  0  0  0  0  0
    2.9648   -0.9687    1.4968 C   0  0  0  0  0  0  0  0  0  0  0  0
    2.0442   -1.1790    2.4998 C   0  0  0  0  0  0  0  0  0  0  0  0
    0.7086   -1.2187    2.1405 C   0  0  0  0  0  0  0  0  0  0  0  0
    0.3062   -0.8702    0.8468 C   0  0  0  0  0  0  0  0  0  0  0  0
   -1.1202   -1.1124    0.5152 N   0  0  0  0  0  0  0  0  0  0  0  0
   -1.5380   -0.7129   -0.5513 O   0  0  0  0  0  0  0  0  0  0  0  0
   -1.7974   -1.7341    1.3146 O   0  0  0  0  0  0  0  0  0  0  0  0
    1.3373    0.6719   -0.9688 F   0  0  0  0  0  0  0  0  0  0  0  0
    4.0368   -0.9961    1.6352 H   0  0  0  0  0  0  0  0  0  0  0  0
    2.3632   -1.3271    3.5153 H   0  0  0  0  0  0  0  0  0  0  0  0
   -0.0448   -1.4805    2.8768 H   0  0  0  0  0  0  0  0  0  0  0  0
   -2.7136    2.4563   -3.0853 C   0  0  0  0  0  0  0  0  0  0  0  0
   -3.7190    2.0470   -2.9322 H   0  0  0  0  0  0  0  0  0  0  0  0
   -2.7942    3.2461   -3.8399 H   0  0  0  0  0  0  0  0  0  0  0  0
   -2.4147    2.9367   -2.1450 H   0  0  0  0  0  0  0  0  0  0  0  0
   -1.5338    1.1667   -3.6176 S   0  0  0  0  0  1  0  0  0  0  0  0
  1  2  2  0  0  0  0
  1  6  1  0  0  0  0
  2  3  1  0  0  0  0
  3 11  1  0  0  0  0
  3  4  2  0  0  0  0
  4 12  1  0  0  0  0
  5  4  1  0  0  0  0
  5 13  1  0  0  0  0
  6  5  2  0  0  0  0
  7  6  1  0  0  0  0
  7  9  2  0  0  0  0
  8  7  2  0  0  0  0
 10  1  1  0  0  0  0
 14 15  1  0  0  0  0
 14 17  1  0  0  0  0
 16 14  1  0  0  0  0
 18 14  1  0  0  0  0
M  END
$$$$
Coordinates from ORCA-job TS_search_opt_without_h_MEP E -990.137870455423
 OpenBabel09152311013D

 18 16  0  0  0  0  0  0  0  0999 V2000
    1.2742   -0.5359    0.0398 C   0  0  0  0  0  3  0  0  0  0  0  0
    2.4564   -0.6765    0.2732 N   0  0  0  0  0  0  0  0  0  0  0  0
    2.9642   -0.9476    1.4788 C   0  0  0  0  0  0  0  0  0  0  0  0
    2.0422   -1.1618    2.4832 C   0  0  0  0  0  0  0  0  0  0  0  0
    0.6859   -1.2309    2.1622 C   0  0  0  0  0  0  0  0  0  0  0  0
    0.2256   -0.9623    0.8695 C   0  0  0  0  0  0  0  0  0  0  0  0
   -1.1913   -1.1722    0.5406 N   0  0  0  0  0  0  0  0  0  0  0  0
   -1.5866   -0.7423   -0.5183 O   0  0  0  0  0  0  0  0  0  0  0  0
   -1.8712   -1.7816    1.3405 O   0  0  0  0  0  0  0  0  0  0  0  0
    1.7184    1.0997   -1.1256 F   0  0  0  0  0 15  0  0  0  0  0  0
    4.0378   -0.9180    1.5893 H   0  0  0  0  0  0  0  0  0  0  0  0
    2.3836   -1.2985    3.4987 H   0  0  0  0  0  0  0  0  0  0  0  0
   -0.0436   -1.4741    2.9331 H   0  0  0  0  0  0  0  0  0  0  0  0
   -2.6976    2.4470   -3.0744 C   0  0  0  0  0  0  0  0  0  0  0  0
   -3.6990    2.0363   -2.9058 H   0  0  0  0  0  0  0  0  0  0  0  0
   -2.7884    3.2258   -3.8383 H   0  0  0  0  0  0  0  0  0  0  0  0
   -2.3902    2.9404   -2.1446 H   0  0  0  0  0  0  0  0  0  0  0  0
   -1.5205    1.1526   -3.6018 S   0  0  0  0  0  1  0  0  0  0  0  0
  1  2  2  0  0  0  0
  1  6  1  0  0  0  0
  2  3  1  0  0  0  0
  3 11  1  0  0  0  0
  3  4  2  0  0  0  0
  4 12  1  0  0  0  0
  5  4  1  0  0  0  0
  5 13  1  0  0  0  0
  6  5  2  0  0  0  0
  7  6  1  0  0  0  0
  7  9  2  0  0  0  0
  8  7  2  0  0  0  0
 14 15  1  0  0  0  0
 14 17  1  0  0  0  0
 16 14  1  0  0  0  0
 18 14  1  0  0  0  0
M  END
$$$$
Coordinates from ORCA-job TS_search_opt_without_h_MEP E -990.115882940197
 OpenBabel09152311013D

 18 16  0  0  0  0  0  0  0  0999 V2000
    1.1971   -0.7401    0.0867 C   0  0  0  0  0  3  0  0  0  0  0  0
    2.3732   -0.7209    0.2365 N   0  0  0  0  0  0  0  0  0  0  0  0
    2.9493   -0.8993    1.4522 C   0  0  0  0  0  0  0  0  0  0  0  0
    2.0390   -1.1446    2.4630 C   0  0  0  0  0  0  0  0  0  0  0  0
    0.6661   -1.2434    2.1899 C   0  0  0  0  0  0  0  0  0  0  0  0
    0.1538   -1.0587    0.9078 C   0  0  0  0  0  0  0  0  0  0  0  0
   -1.2504   -1.2216    0.5649 N   0  0  0  0  0  0  0  0  0  0  0  0
   -1.6165   -0.7561   -0.4882 O   0  0  0  0  0  0  0  0  0  0  0  0
   -1.9383   -1.8211    1.3587 O   0  0  0  0  0  0  0  0  0  0  0  0
    2.0444    1.4524   -1.2726 F   0  0  0  0  0 15  0  0  0  0  0  0
    4.0240   -0.8487    1.5470 H   0  0  0  0  0  0  0  0  0  0  0  0
    2.4010   -1.2851    3.4743 H   0  0  0  0  0  0  0  0  0  0  0  0
   -0.0441   -1.4692    2.9813 H   0  0  0  0  0  0  0  0  0  0  0  0
   -2.6792    2.4376   -3.0633 C   0  0  0  0  0  0  0  0  0  0  0  0
   -3.6767    2.0242   -2.8796 H   0  0  0  0  0  0  0  0  0  0  0  0
   -2.7829    3.2054   -3.8363 H   0  0  0  0  0  0  0  0  0  0  0  0
   -2.3659    2.9451   -2.1441 H   0  0  0  0  0  0  0  0  0  0  0  0
   -1.4940    1.1441   -3.5783 S   0  0  0  0  0  1  0  0  0  0  0  0
  1  2  2  0  0  0  0
  1  6  1  0  0  0  0
  2  3  1  0  0  0  0
  3 11  1  0  0  0  0
  3  4  2  0  0  0  0
  4 12  1  0  0  0  0
  5  4  1  0  0  0  0
  5 13  1  0  0  0  0
  6  5  2  0  0  0  0
  7  6  1  0  0  0  0
  7  9  2  0  0  0  0
  8  7  2  0  0  0  0
 14 15  1  0  0  0  0
 14 17  1  0  0  0  0
 16 14  1  0  0  0  0
 18 14  1  0  0  0  0
M  END
$$$$
Coordinates from ORCA-job TS_search_opt_without_h_MEP E -990.113363891661
 OpenBabel09152311013D

 18 16  0  0  0  0  0  0  0  0999 V2000
    1.0947   -0.7635    0.0680 C   0  0  0  0  0  3  0  0  0  0  0  0
    2.2678   -0.6839    0.1750 N   0  0  0  0  0  0  0  0  0  0  0  0
    2.8876   -0.8398    1.3796 C   0  0  0  0  0  0  0  0  0  0  0  0
    2.0124   -1.1240    2.4093 C   0  0  0  0  0  0  0  0  0  0  0  0
    0.6321   -1.2591    2.1774 C   0  0  0  0  0  0  0  0  0  0  0  0
    0.0771   -1.0940    0.9119 C   0  0  0  0  0  0  0  0  0  0  0  0
   -1.3315   -1.2562    0.5983 N   0  0  0  0  0  0  0  0  0  0  0  0
   -1.7350   -0.7110   -0.4010 O   0  0  0  0  0  0  0  0  0  0  0  0
   -1.9837   -1.9277    1.3629 O   0  0  0  0  0  0  0  0  0  0  0  0
    2.2472    1.7101   -1.3089 F   0  0  0  0  0 15  0  0  0  0  0  0
    3.9610   -0.7552    1.4483 H   0  0  0  0  0  0  0  0  0  0  0  0
    2.4043   -1.2613    3.4105 H   0  0  0  0  0  0  0  0  0  0  0  0
   -0.0513   -1.4947    2.9906 H   0  0  0  0  0  0  0  0  0  0  0  0
   -2.5756    2.3789   -3.0062 C   0  0  0  0  0  0  0  0  0  0  0  0
   -3.5434    1.9659   -2.7025 H   0  0  0  0  0  0  0  0  0  0  0  0
   -2.7652    3.0887   -3.8171 H   0  0  0  0  0  0  0  0  0  0  0  0
   -2.1900    2.9539   -2.1578 H   0  0  0  0  0  0  0  0  0  0  0  0
   -1.4086    1.0729   -3.5383 S   0  0  0  0  0  1  0  0  0  0  0  0
  1  2  2  0  0  0  0
  1  6  1  0  0  0  0
  2  3  1  0  0  0  0
  3 11  1  0  0  0  0
  3  4  2  0  0  0  0
  4 12  1  0  0  0  0
  5  4  1  0  0  0  0
  5 13  1  0  0  0  0
  6  5  2  0  0  0  0
  7  6  1  0  0  0  0
  7  9  2  0  0  0  0
  8  7  2  0  0  0  0
 14 15  1  0  0  0  0
 14 17  1  0  0  0  0
 16 14  1  0  0  0  0
 18 14  1  0  0  0  0
M  END
$$$$
Coordinates from ORCA-job TS_search_opt_without_h_MEP E -990.114597009872
 OpenBabel09152311013D

 18 16  0  0  0  0  0  0  0  0999 V2000
    0.9188   -0.6519   -0.0251 C   0  0  0  0  0  3  0  0  0  0  0  0
    2.0998   -0.5579    0.0550 N   0  0  0  0  0  0  0  0  0  0  0  0
    2.7697   -0.7540    1.2268 C   0  0  0  0  0  0  0  0  0  0  0  0
    1.9506   -1.0946    2.2851 C   0  0  0  0  0  0  0  0  0  0  0  0
    0.5676   -1.2507    2.1061 C   0  0  0  0  0  0  0  0  0  0  0  0
   -0.0378   -1.0464    0.8708 C   0  0  0  0  0  0  0  0  0  0  0  0
   -1.4596   -1.2367    0.6276 N   0  0  0  0  0  0  0  0  0  0  0  0
   -1.9754   -0.5489   -0.2184 O   0  0  0  0  0  0  0  0  0  0  0  0
   -2.0092   -2.0791    1.3031 O   0  0  0  0  0  0  0  0  0  0  0  0
    2.3494    2.0388   -1.2751 F   0  0  0  0  0 15  0  0  0  0  0  0
    3.8451   -0.6565    1.2605 H   0  0  0  0  0  0  0  0  0  0  0  0
    2.3887   -1.2573    3.2633 H   0  0  0  0  0  0  0  0  0  0  0  0
   -0.0736   -1.5287    2.9389 H   0  0  0  0  0  0  0  0  0  0  0  0
   -2.3462    2.2137   -2.8503 C   0  0  0  0  0  0  0  0  0  0  0  0
   -3.2802    1.8459   -2.4126 H   0  0  0  0  0  0  0  0  0  0  0  0
   -2.6142    2.7832   -3.7474 H   0  0  0  0  0  0  0  0  0  0  0  0
   -1.9073    2.9234   -2.1425 H   0  0  0  0  0  0  0  0  0  0  0  0
   -1.1863    0.8576   -3.2658 S   0  0  0  0  0  1  0  0  0  0  0  0
  1  2  2  0  0  0  0
  1  6  1  0  0  0  0
  2  3  1  0  0  0  0
  3 11  1  0  0  0  0
  3  4  2  0  0  0  0
  4 12  1  0  0  0  0
  5  4  1  0  0  0  0
  5 13  1  0  0  0  0
  6  5  2  0  0  0  0
  7  6  1  0  0  0  0
  7  9  2  0  0  0  0
  8  7  2  0  0  0  0
 14 15  1  0  0  0  0
 14 17  1  0  0  0  0
 16 14  1  0  0  0  0
 18 14  1  0  0  0  0
M  END
$$$$
Coordinates from ORCA-job TS_search_opt_without_h_MEP E -990.138255454301
 OpenBabel09152311013D

 18 16  0  0  0  0  0  0  0  0999 V2000
    0.7223   -0.4864   -0.1806 C   0  0  0  0  0  3  0  0  0  0  0  0
    1.9581   -0.4274   -0.0892 N   0  0  0  0  0  0  0  0  0  0  0  0
    2.6220   -0.7011    1.0657 C   0  0  0  0  0  0  0  0  0  0  0  0
    1.8782   -1.0728    2.1684 C   0  0  0  0  0  0  0  0  0  0  0  0
    0.4988   -1.2312    2.0316 C   0  0  0  0  0  0  0  0  0  0  0  0
   -0.1139   -0.9597    0.8163 C   0  0  0  0  0  0  0  0  0  0  0  0
   -1.5395   -1.1959    0.6409 N   0  0  0  0  0  0  0  0  0  0  0  0
   -2.1518   -0.4711   -0.1053 O   0  0  0  0  0  0  0  0  0  0  0  0
   -2.0181   -2.1266    1.2626 O   0  0  0  0  0  0  0  0  0  0  0  0
    2.4813    2.3321   -1.2901 F   0  0  0  0  0 15  0  0  0  0  0  0
    3.7040   -0.6183    1.0910 H   0  0  0  0  0  0  0  0  0  0  0  0
    2.3606   -1.2532    3.1250 H   0  0  0  0  0  0  0  0  0  0  0  0
   -0.1096   -1.5482    2.8735 H   0  0  0  0  0  0  0  0  0  0  0  0
   -2.1471    2.0390   -2.6524 C   0  0  0  0  0  0  0  0  0  0  0  0
   -3.1133    1.7227   -2.2505 H   0  0  0  0  0  0  0  0  0  0  0  0
   -2.3449    2.4421   -3.6586 H   0  0  0  0  0  0  0  0  0  0  0  0
   -1.7714    2.8779   -2.0642 H   0  0  0  0  0  0  0  0  0  0  0  0
   -0.9156    0.6781   -2.7843 S   0  0  0  0  0  1  0  0  0  0  0  0
  1  2  2  0  0  0  0
  1  6  1  0  0  0  0
  2  3  1  0  0  0  0
  3 11  1  0  0  0  0
  3  4  2  0  0  0  0
  4 12  1  0  0  0  0
  5  4  1  0  0  0  0
  5 13  1  0  0  0  0
  6  5  2  0  0  0  0
  7  6  1  0  0  0  0
  7  9  2  0  0  0  0
  8  7  2  0  0  0  0
 14 15  1  0  0  0  0
 14 17  1  0  0  0  0
 16 14  1  0  0  0  0
 18 14  1  0  0  0  0
M  END
$$$$
Coordinates from ORCA-job TS_search_opt_without_h_MEP E -990.214845803017
 OpenBabel09152311013D

 18 16  0  0  0  0  0  0  0  0999 V2000
    0.4779   -0.2709   -0.3319 C   0  0  0  0  0  3  0  0  0  0  0  0
    1.7845   -0.2682   -0.2572 N   0  0  0  0  0  0  0  0  0  0  0  0
    2.4475   -0.6238    0.8742 C   0  0  0  0  0  0  0  0  0  0  0  0
    1.7913   -1.0262    2.0274 C   0  0  0  0  0  0  0  0  0  0  0  0
    0.4200   -1.1899    1.9314 C   0  0  0  0  0  0  0  0  0  0  0  0
   -0.2188   -0.8462    0.7405 C   0  0  0  0  0  0  0  0  0  0  0  0
   -1.6356   -1.1525    0.6369 N   0  0  0  0  0  0  0  0  0  0  0  0
   -2.3250   -0.4367   -0.0551 O   0  0  0  0  0  0  0  0  0  0  0  0
   -2.0435   -2.1327    1.2356 O   0  0  0  0  0  0  0  0  0  0  0  0
    2.5669    2.5900   -1.3280 F   0  0  0  0  0 15  0  0  0  0  0  0
    3.5391   -0.5727    0.8831 H   0  0  0  0  0  0  0  0  0  0  0  0
    2.3215   -1.2304    2.9581 H   0  0  0  0  0  0  0  0  0  0  0  0
   -0.1543   -1.5572    2.7773 H   0  0  0  0  0  0  0  0  0  0  0  0
   -1.8996    1.8393   -2.3917 C   0  0  0  0  0  0  0  0  0  0  0  0
   -2.9016    1.5583   -2.0525 H   0  0  0  0  0  0  0  0  0  0  0  0
   -2.0121    2.0672   -3.4719 H   0  0  0  0  0  0  0  0  0  0  0  0
   -1.6078    2.7846   -1.9342 H   0  0  0  0  0  0  0  0  0  0  0  0
   -0.5502    0.4683   -2.2422 S   0  0  0  0  0  1  0  0  0  0  0  0
  1  2  2  0  0  0  0
  1  6  1  0  0  0  0
  2  3  1  0  0  0  0
  3 11  1  0  0  0  0
  3  4  2  0  0  0  0
  4 12  1  0  0  0  0
  5  4  1  0  0  0  0
  5 13  1  0  0  0  0
  6  5  2  0  0  0  0
  7  6  1  0  0  0  0
  7  9  2  0  0  0  0
  8  7  2  0  0  0  0
 14 18  1  0  0  0  0
 14 15  1  0  0  0  0
 14 17  1  0  0  0  0
 16 14  1  0  0  0  0
M  END
$$$$
Coordinates from ORCA-job TS_search_opt_without_h_MEP E -990.305437100350
 OpenBabel09152311013D

 18 17  0  0  0  0  0  0  0  0999 V2000
    0.2757   -0.3970   -0.5630 C   0  0  0  0  0  0  0  0  0  0  0  0
    1.5900   -0.1887   -0.4957 N   0  0  0  0  0  0  0  0  0  0  0  0
    2.2342   -0.4219    0.6494 C   0  0  0  0  0  0  0  0  0  0  0  0
    1.6133   -0.8805    1.8006 C   0  0  0  0  0  0  0  0  0  0  0  0
    0.2524   -1.1136    1.7530 C   0  0  0  0  0  0  0  0  0  0  0  0
   -0.4123   -0.8609    0.5631 C   0  0  0  0  0  0  0  0  0  0  0  0
   -1.8601   -1.1096    0.5777 N   0  0  0  0  0  0  0  0  0  0  0  0
   -2.6031   -0.3070    0.0570 O   0  0  0  0  0  0  0  0  0  0  0  0
   -2.2383   -2.1185    1.1444 O   0  0  0  0  0  0  0  0  0  0  0  0
    1.7534    3.3075   -1.5293 F   0  0  0  0  0 15  0  0  0  0  0  0
    3.3016   -0.2246    0.6411 H   0  0  0  0  0  0  0  0  0  0  0  0
    2.1811   -1.0506    2.7068 H   0  0  0  0  0  0  0  0  0  0  0  0
   -0.2962   -1.4756    2.6150 H   0  0  0  0  0  0  0  0  0  0  0  0
   -1.2211    1.5025   -1.9466 C   0  0  0  0  0  0  0  0  0  0  0  0
   -1.9947    1.4815   -1.1839 H   0  0  0  0  0  0  0  0  0  0  0  0
   -1.6656    1.7522   -2.9120 H   0  0  0  0  0  0  0  0  0  0  0  0
   -0.4457    2.2362   -1.7109 H   0  0  0  0  0  0  0  0  0  0  0  0
   -0.4647   -0.1313   -2.1665 S   0  0  0  0  0  0  0  0  0  0  0  0
  1  2  2  0  0  0  0
  1  6  1  0  0  0  0
  2  3  1  0  0  0  0
  3  4  2  0  0  0  0
  4 12  1  0  0  0  0
  5  4  1  0  0  0  0
  5 13  1  0  0  0  0
  6  7  1  0  0  0  0
  6  5  2  0  0  0  0
  7  9  2  0  0  0  0
  8  7  2  0  0  0  0
 11  3  1  0  0  0  0
 14 17  1  0  0  0  0
 14 15  1  0  0  0  0
 16 14  1  0  0  0  0
 18 14  1  0  0  0  0
 18  1  1  0  0  0  0
M  END
$$$$
