Coordinates from ORCA-job TS_search_opt_without_h_MEP E -990.266421767106
 OpenBabel09152311013D

 18 17  0  0  0  0  0  0  0  0999 V2000
    1.1558    2.1060   -1.0825 C   0  0  0  0  0  0  0  0  0  0  0  0
    2.2778    1.9169   -0.4586 N   0  0  0  0  0  0  0  0  0  0  0  0
    2.3494    1.9021    0.8723 C   0  0  0  0  0  0  0  0  0  0  0  0
    1.2415    2.0835    1.6693 C   0  0  0  0  0  0  0  0  0  0  0  0
    0.0351    2.2864    1.0307 C   0  0  0  0  0  0  0  0  0  0  0  0
   -0.0375    2.3018   -0.3528 C   0  0  0  0  0  0  0  0  0  0  0  0
   -1.3003    2.5151   -1.0123 N   0  0  0  0  0  0  0  0  0  0  0  0
   -1.3832    2.5331   -2.2574 O   0  0  0  0  0  0  0  0  0  0  0  0
   -2.3145    2.6819   -0.3602 O   0  0  0  0  0  0  0  0  0  0  0  0
    1.1581    2.1103   -2.4324 F   0  0  0  0  0  0  0  0  0  0  0  0
    3.3344    1.7387    1.2955 H   0  0  0  0  0  0  0  0  0  0  0  0
    1.3098    2.0680    2.7489 H   0  0  0  0  0  0  0  0  0  0  0  0
   -0.8609    2.4337    1.6103 H   0  0  0  0  0  0  0  0  0  0  0  0
   -1.4338   -5.8596   -0.2126 C   0  0  0  0  0  0  0  0  0  0  0  0
   -1.2525   -6.5964   -1.0000 H   0  0  0  0  0  0  0  0  0  0  0  0
   -2.5013   -5.8442    0.0237 H   0  0  0  0  0  0  0  0  0  0  0  0
   -0.8753   -6.1505    0.6815 H   0  0  0  0  0  0  0  0  0  0  0  0
   -0.9026   -4.2268   -0.7634 S   0  0  0  0  0  1  0  0  0  0  0  0
  1  2  2  0  0  0  0
  1  6  1  0  0  0  0
  2  3  1  0  0  0  0
  3 11  1  0  0  0  0
  3  4  2  0  0  0  0
  4 12  1  0  0  0  0
  5 13  1  0  0  0  0
  5  4  1  0  0  0  0
  6  5  2  0  0  0  0
  7  9  2  0  0  0  0
  7  6  1  0  0  0  0
  8  7  2  0  0  0  0
 10  1  1  0  0  0  0
 14 16  1  0  0  0  0
 14 17  1  0  0  0  0
 15 14  1  0  0  0  0
 18 14  1  0  0  0  0
M  END
$$$$
Coordinates from ORCA-job TS_search_opt_without_h_MEP E -990.274514563670
 OpenBabel09152311013D

 18 17  0  0  0  0  0  0  0  0999 V2000
    0.9459    1.0779   -0.8423 C   0  0  0  0  0  0  0  0  0  0  0  0
    2.1138    0.9933   -0.2684 N   0  0  0  0  0  0  0  0  0  0  0  0
    2.2647    1.5687    0.9320 C   0  0  0  0  0  0  0  0  0  0  0  0
    1.2465    2.2393    1.5858 C   0  0  0  0  0  0  0  0  0  0  0  0
    0.0075    2.3138    0.9716 C   0  0  0  0  0  0  0  0  0  0  0  0
   -0.1513    1.7205   -0.2733 C   0  0  0  0  0  0  0  0  0  0  0  0
   -1.4579    1.7975   -0.9215 N   0  0  0  0  0  0  0  0  0  0  0  0
   -1.5444    1.4888   -2.0995 O   0  0  0  0  0  0  0  0  0  0  0  0
   -2.3966    2.1724   -0.2550 O   0  0  0  0  0  0  0  0  0  0  0  0
    0.8546    0.4883   -2.0330 F   0  0  0  0  0  0  0  0  0  0  0  0
    3.2491    1.4809    1.3802 H   0  0  0  0  0  0  0  0  0  0  0  0
    1.4158    2.6926    2.5549 H   0  0  0  0  0  0  0  0  0  0  0  0
   -0.8283    2.8215    1.4348 H   0  0  0  0  0  0  0  0  0  0  0  0
   -1.1608   -4.6931   -0.4504 C   0  0  0  0  0  0  0  0  0  0  0  0
   -1.1621   -4.9559   -1.5133 H   0  0  0  0  0  0  0  0  0  0  0  0
   -2.1132   -5.0338   -0.0310 H   0  0  0  0  0  0  0  0  0  0  0  0
   -0.3686   -5.2786    0.0276 H   0  0  0  0  0  0  0  0  0  0  0  0
   -0.9147   -2.8942   -0.1991 S   0  0  0  0  0  1  0  0  0  0  0  0
  1  6  2  0  0  0  0
  1  2  1  0  0  0  0
  2  3  2  0  0  0  0
  3 11  1  0  0  0  0
  3  4  1  0  0  0  0
  4 12  1  0  0  0  0
  5 13  1  0  0  0  0
  5  4  2  0  0  0  0
  6  5  1  0  0  0  0
  7  6  1  0  0  0  0
  7  9  2  0  0  0  0
  8  7  2  0  0  0  0
 10  1  1  0  0  0  0
 14 18  1  0  0  0  0
 14 16  1  0  0  0  0
 14 17  1  0  0  0  0
 15 14  1  0  0  0  0
M  END
$$$$
Coordinates from ORCA-job TS_search_opt_without_h_MEP E -990.270983803924
 OpenBabel09152311013D

 18 17  0  0  0  0  0  0  0  0999 V2000
    0.6886    0.2361   -0.5824 C   0  0  0  0  0  0  0  0  0  0  0  0
    1.8377    0.1608    0.0363 N   0  0  0  0  0  0  0  0  0  0  0  0
    2.0870    1.0305    1.0187 C   0  0  0  0  0  0  0  0  0  0  0  0
    1.2172    2.0493    1.3798 C   0  0  0  0  0  0  0  0  0  0  0  0
   -0.0088    2.1054    0.7415 C   0  0  0  0  0  0  0  0  0  0  0  0
   -0.2970    1.1775   -0.2408 C   0  0  0  0  0  0  0  0  0  0  0  0
   -1.6181    1.1814   -0.8425 N   0  0  0  0  0  0  0  0  0  0  0  0
   -1.8131    0.5576   -1.8564 O   0  0  0  0  0  0  0  0  0  0  0  0
   -2.4920    1.8272   -0.2684 O   0  0  0  0  0  0  0  0  0  0  0  0
    0.6065   -0.4752   -1.7049 F   0  0  0  0  0  0  0  0  0  0  0  0
    3.0446    0.9243    1.5143 H   0  0  0  0  0  0  0  0  0  0  0  0
    1.5012    2.7823    2.1231 H   0  0  0  0  0  0  0  0  0  0  0  0
   -0.7394    2.8722    0.9800 H   0  0  0  0  0  0  0  0  0  0  0  0
   -0.7973   -3.3793   -0.5417 C   0  0  0  0  0  0  0  0  0  0  0  0
   -0.9908   -3.1066   -1.5861 H   0  0  0  0  0  0  0  0  0  0  0  0
   -1.5754   -4.0833   -0.2401 H   0  0  0  0  0  0  0  0  0  0  0  0
    0.1575   -3.9150   -0.5161 H   0  0  0  0  0  0  0  0  0  0  0  0
   -0.8086   -1.9452    0.5860 S   0  0  0  0  0  1  0  0  0  0  0  0
  1  6  2  0  0  0  0
  1  2  1  0  0  0  0
  2  3  2  0  0  0  0
  3  4  1  0  0  0  0
  3 11  1  0  0  0  0
  4 12  1  0  0  0  0
  5 13  1  0  0  0  0
  5  4  2  0  0  0  0
  6  5  1  0  0  0  0
  7  9  2  0  0  0  0
  7  6  1  0  0  0  0
  8  7  2  0  0  0  0
 10  1  1  0  0  0  0
 14 17  1  0  0  0  0
 14 16  1  0  0  0  0
 14 18  1  0  0  0  0
 15 14  1  0  0  0  0
M  END
$$$$
Coordinates from ORCA-job TS_search_opt_without_h_MEP E -990.262247668295
 OpenBabel09152311013D

 18 17  0  0  0  0  0  0  0  0999 V2000
    0.5830    0.0672   -0.4810 C   0  0  0  0  0  0  0  0  0  0  0  0
    1.7889    0.0677    0.1053 N   0  0  0  0  0  0  0  0  0  0  0  0
    2.0591    0.9829    1.0232 C   0  0  0  0  0  0  0  0  0  0  0  0
    1.2033    2.0266    1.3788 C   0  0  0  0  0  0  0  0  0  0  0  0
   -0.0177    2.0860    0.7411 C   0  0  0  0  0  0  0  0  0  0  0  0
   -0.3342    1.1309   -0.2187 C   0  0  0  0  0  0  0  0  0  0  0  0
   -1.6281    1.1730   -0.8189 N   0  0  0  0  0  0  0  0  0  0  0  0
   -1.8390    0.5210   -1.8319 O   0  0  0  0  0  0  0  0  0  0  0  0
   -2.5014    1.8587   -0.2877 O   0  0  0  0  0  0  0  0  0  0  0  0
    0.6230   -0.4758   -1.7293 F   0  0  0  0  0  0  0  0  0  0  0  0
    3.0400    0.9130    1.4852 H   0  0  0  0  0  0  0  0  0  0  0  0
    1.5106    2.7809    2.0914 H   0  0  0  0  0  0  0  0  0  0  0  0
   -0.7266    2.8800    0.9457 H   0  0  0  0  0  0  0  0  0  0  0  0
   -0.7481   -3.3029   -0.5604 C   0  0  0  0  0  0  0  0  0  0  0  0
   -0.9749   -3.0831   -1.6081 H   0  0  0  0  0  0  0  0  0  0  0  0
   -1.5452   -3.9522   -0.1847 H   0  0  0  0  0  0  0  0  0  0  0  0
    0.1832   -3.8748   -0.5244 H   0  0  0  0  0  0  0  0  0  0  0  0
   -0.6759   -1.7994    0.4744 S   0  0  0  0  0  1  0  0  0  0  0  0
  1  6  2  0  0  0  0
  1  2  1  0  0  0  0
  2  3  2  0  0  0  0
  3  4  1  0  0  0  0
  3 11  1  0  0  0  0
  4 12  1  0  0  0  0
  5 13  1  0  0  0  0
  5  4  2  0  0  0  0
  6  5  1  0  0  0  0
  7  9  2  0  0  0  0
  7  6  1  0  0  0  0
  8  7  2  0  0  0  0
 10  1  1  0  0  0  0
 14 17  1  0  0  0  0
 14 16  1  0  0  0  0
 14 18  1  0  0  0  0
 15 14  1  0  0  0  0
M  END
$$$$
Coordinates from ORCA-job TS_search_opt_without_h_MEP E -990.263714972164
 OpenBabel09152311013D

 18 17  0  0  0  0  0  0  0  0999 V2000
    0.5522    0.0182   -0.4563 C   0  0  0  0  0  0  0  0  0  0  0  0
    1.7814    0.0483    0.1200 N   0  0  0  0  0  0  0  0  0  0  0  0
    2.0551    0.9752    1.0202 C   0  0  0  0  0  0  0  0  0  0  0  0
    1.1983    2.0257    1.3775 C   0  0  0  0  0  0  0  0  0  0  0  0
   -0.0176    2.0831    0.7420 C   0  0  0  0  0  0  0  0  0  0  0  0
   -0.3432    1.1221   -0.2156 C   0  0  0  0  0  0  0  0  0  0  0  0
   -1.6261    1.1710   -0.8139 N   0  0  0  0  0  0  0  0  0  0  0  0
   -1.8421    0.5182   -1.8294 O   0  0  0  0  0  0  0  0  0  0  0  0
   -2.5033    1.8646   -0.2899 O   0  0  0  0  0  0  0  0  0  0  0  0
    0.6292   -0.4754   -1.7360 F   0  0  0  0  0  0  0  0  0  0  0  0
    3.0397    0.9145    1.4767 H   0  0  0  0  0  0  0  0  0  0  0  0
    1.5110    2.7809    2.0897 H   0  0  0  0  0  0  0  0  0  0  0  0
   -0.7245    2.8811    0.9416 H   0  0  0  0  0  0  0  0  0  0  0  0
   -0.7373   -3.2877   -0.5649 C   0  0  0  0  0  0  0  0  0  0  0  0
   -0.9737   -3.0805   -1.6116 H   0  0  0  0  0  0  0  0  0  0  0  0
   -1.5387   -3.9269   -0.1749 H   0  0  0  0  0  0  0  0  0  0  0  0
    0.1868   -3.8693   -0.5242 H   0  0  0  0  0  0  0  0  0  0  0  0
   -0.6471   -1.7631    0.4490 S   0  0  0  0  0  1  0  0  0  0  0  0
  1  6  2  0  0  0  0
  1  2  1  0  0  0  0
  2  3  2  0  0  0  0
  3  4  1  0  0  0  0
  3 11  1  0  0  0  0
  4 12  1  0  0  0  0
  5 13  1  0  0  0  0
  5  4  2  0  0  0  0
  6  5  1  0  0  0  0
  7  9  2  0  0  0  0
  7  6  1  0  0  0  0
  8  7  2  0  0  0  0
 10  1  1  0  0  0  0
 14 17  1  0  0  0  0
 14 16  1  0  0  0  0
 14 18  1  0  0  0  0
 15 14  1  0  0  0  0
M  END
$$$$
Coordinates from ORCA-job TS_search_opt_without_h_MEP E -990.272329291319
 OpenBabel09152311013D

 18 18  0  0  1  0  0  0  0  0999 V2000
    0.4715   -0.1118   -0.4010 C   0  0  1  0  0  0  0  0  0  0  0  0
    1.7566   -0.0106    0.1678 N   0  0  0  0  0  0  0  0  0  0  0  0
    2.0438    0.9495    1.0088 C   0  0  0  0  0  0  0  0  0  0  0  0
    1.1848    2.0164    1.3777 C   0  0  0  0  0  0  0  0  0  0  0  0
   -0.0211    2.0737    0.7394 C   0  0  0  0  0  0  0  0  0  0  0  0
   -0.3683    1.0881   -0.2044 C   0  0  2  0  0  3  0  0  0  0  0  0
   -1.6227    1.1646   -0.7991 N   0  0  0  0  0  0  0  0  0  0  0  0
   -1.8572    0.5046   -1.8197 O   0  0  0  0  0  0  0  0  0  0  0  0
   -2.5079    1.8861   -0.3005 O   0  0  0  0  0  0  0  0  0  0  0  0
    0.6454   -0.4735   -1.7482 F   0  0  0  0  0  0  0  0  0  0  0  0
    3.0416    0.9122    1.4534 H   0  0  0  0  0  0  0  0  0  0  0  0
    1.5128    2.7770    2.0767 H   0  0  0  0  0  0  0  0  0  0  0  0
   -0.7202    2.8828    0.9285 H   0  0  0  0  0  0  0  0  0  0  0  0
   -0.7017   -3.2383   -0.5807 C   0  0  0  0  0  0  0  0  0  0  0  0
   -0.9650   -3.0657   -1.6249 H   0  0  0  0  0  0  0  0  0  0  0  0
   -1.5147   -3.8416   -0.1453 H   0  0  0  0  0  0  0  0  0  0  0  0
    0.2045   -3.8447   -0.5260 H   0  0  0  0  0  0  0  0  0  0  0  0
   -0.5824   -1.6688    0.3977 S   0  0  0  0  0  0  0  0  0  0  0  0
  1 10  1  6  0  0  0
  1  6  1  0  0  0  0
  1  2  1  0  0  0  0
  1 18  1  0  0  0  0
  2  3  2  0  0  0  0
  3  4  1  0  0  0  0
  3 11  1  0  0  0  0
  4 12  1  0  0  0  0
  5 13  1  0  0  0  0
  5  4  2  0  0  0  0
  6  7  1  1  0  0  0
  6  5  1  0  0  0  0
  7  9  2  0  0  0  0
  8  7  2  0  0  0  0
 14 17  1  0  0  0  0
 14 16  1  0  0  0  0
 14 18  1  0  0  0  0
 15 14  1  0  0  0  0
M  END
$$$$
Coordinates from ORCA-job TS_search_opt_without_h_MEP E -990.283425369557
 OpenBabel09152311013D

 18 17  0  0  0  0  0  0  0  0999 V2000
    0.2014   -0.2470    0.1528 C   0  0  0  0  0  0  0  0  0  0  0  0
    1.4486   -0.2648    0.6149 N   0  0  0  0  0  0  0  0  0  0  0  0
    1.9889    0.8664    1.0727 C   0  0  0  0  0  0  0  0  0  0  0  0
    1.2730    2.0457    1.2290 C   0  0  0  0  0  0  0  0  0  0  0  0
    0.0160    2.1124    0.6650 C   0  0  0  0  0  0  0  0  0  0  0  0
   -0.4728    0.9780    0.0371 C   0  0  0  0  0  0  0  0  0  0  0  0
   -1.7508    1.1080   -0.6692 N   0  0  0  0  0  0  0  0  0  0  0  0
   -1.9202    0.4950   -1.7054 O   0  0  0  0  0  0  0  0  0  0  0  0
   -2.5727    1.8770   -0.2037 O   0  0  0  0  0  0  0  0  0  0  0  0
    0.9892   -0.5714   -2.3339 F   0  0  0  0  0 15  0  0  0  0  0  0
    3.0216    0.8104    1.3964 H   0  0  0  0  0  0  0  0  0  0  0  0
    1.6769    2.8741    1.7908 H   0  0  0  0  0  0  0  0  0  0  0  0
   -0.5973    3.0018    0.7164 H   0  0  0  0  0  0  0  0  0  0  0  0
   -0.6010   -3.1130   -0.6591 C   0  0  0  0  0  0  0  0  0  0  0  0
   -0.8280   -2.9298   -1.7076 H   0  0  0  0  0  0  0  0  0  0  0  0
   -1.3609   -3.7893   -0.2566 H   0  0  0  0  0  0  0  0  0  0  0  0
    0.3722   -3.5844   -0.5324 H   0  0  0  0  0  0  0  0  0  0  0  0
   -0.8839   -1.6691    0.3928 S   0  0  0  0  0  0  0  0  0  0  0  0
  1 18  1  0  0  0  0
  1  2  1  0  0  0  0
  2  3  2  0  0  0  0
  3  4  1  0  0  0  0
  3 11  1  0  0  0  0
  4 12  1  0  0  0  0
  5 13  1  0  0  0  0
  5  4  2  0  0  0  0
  6  1  2  0  0  0  0
  6  5  1  0  0  0  0
  7  9  2  0  0  0  0
  7  6  1  0  0  0  0
  8  7  2  0  0  0  0
 14 17  1  0  0  0  0
 14 16  1  0  0  0  0
 14 18  1  0  0  0  0
 15 14  1  0  0  0  0
M  END
$$$$
Coordinates from ORCA-job TS_search_opt_without_h_MEP E -990.300071460607
 OpenBabel09152311013D

 18 17  0  0  0  0  0  0  0  0999 V2000
   -0.1011   -0.3459    0.4710 C   0  0  0  0  0  0  0  0  0  0  0  0
    1.1578   -0.4647    0.8792 N   0  0  0  0  0  0  0  0  0  0  0  0
    1.8668    0.6487    1.0983 C   0  0  0  0  0  0  0  0  0  0  0  0
    1.3254    1.9286    1.0600 C   0  0  0  0  0  0  0  0  0  0  0  0
    0.0307    2.0741    0.5919 C   0  0  0  0  0  0  0  0  0  0  0  0
   -0.6318    0.9191    0.2168 C   0  0  0  0  0  0  0  0  0  0  0  0
   -1.8728    1.0616   -0.5506 N   0  0  0  0  0  0  0  0  0  0  0  0
   -1.8807    0.5771   -1.6652 O   0  0  0  0  0  0  0  0  0  0  0  0
   -2.7913    1.6899   -0.0677 O   0  0  0  0  0  0  0  0  0  0  0  0
    1.7922    0.2785   -3.1642 F   0  0  0  0  0 15  0  0  0  0  0  0
    2.9144    0.5108    1.3482 H   0  0  0  0  0  0  0  0  0  0  0  0
    1.9124    2.7909    1.3566 H   0  0  0  0  0  0  0  0  0  0  0  0
   -0.4426    3.0458    0.4880 H   0  0  0  0  0  0  0  0  0  0  0  0
   -0.5828   -3.0319   -0.5062 C   0  0  0  0  0  0  0  0  0  0  0  0
   -0.6780   -2.7833   -1.5632 H   0  0  0  0  0  0  0  0  0  0  0  0
   -1.2266   -3.8888   -0.2876 H   0  0  0  0  0  0  0  0  0  0  0  0
    0.4434   -3.2950   -0.2529 H   0  0  0  0  0  0  0  0  0  0  0  0
   -1.2353   -1.7154    0.5477 S   0  0  0  0  0  0  0  0  0  0  0  0
  1 18  1  0  0  0  0
  1  2  1  0  0  0  0
  2  3  2  0  0  0  0
  3 11  1  0  0  0  0
  4  3  1  0  0  0  0
  4 12  1  0  0  0  0
  5  4  2  0  0  0  0
  6  1  2  0  0  0  0
  6  5  1  0  0  0  0
  7  9  2  0  0  0  0
  7  6  1  0  0  0  0
  8  7  2  0  0  0  0
 13  5  1  0  0  0  0
 14 16  1  0  0  0  0
 14 17  1  0  0  0  0
 14 18  1  0  0  0  0
 15 14  1  0  0  0  0
M  END
$$$$
Coordinates from ORCA-job TS_search_opt_without_h_MEP E -990.303464822668
 OpenBabel09152311013D

 18 17  0  0  0  0  0  0  0  0999 V2000
   -0.2374   -0.3241    0.5487 C   0  0  0  0  0  0  0  0  0  0  0  0
    1.0620   -0.4342    0.8111 N   0  0  0  0  0  0  0  0  0  0  0  0
    1.7865    0.6781    0.9418 C   0  0  0  0  0  0  0  0  0  0  0  0
    1.2448    1.9570    0.9130 C   0  0  0  0  0  0  0  0  0  0  0  0
   -0.0974    2.0927    0.6074 C   0  0  0  0  0  0  0  0  0  0  0  0
   -0.8119    0.9309    0.3665 C   0  0  0  0  0  0  0  0  0  0  0  0
   -2.1856    1.0666   -0.1346 N   0  0  0  0  0  0  0  0  0  0  0  0
   -2.4530    0.5284   -1.1902 O   0  0  0  0  0  0  0  0  0  0  0  0
   -2.9618    1.7439    0.5075 O   0  0  0  0  0  0  0  0  0  0  0  0
    3.6012   -1.0473   -3.2810 F   0  0  0  0  0 15  0  0  0  0  0  0
    2.8500    0.5370    1.1062 H   0  0  0  0  0  0  0  0  0  0  0  0
    1.8657    2.8216    1.1122 H   0  0  0  0  0  0  0  0  0  0  0  0
   -0.5776    3.0622    0.5325 H   0  0  0  0  0  0  0  0  0  0  0  0
   -0.5523   -2.7920   -0.6822 C   0  0  0  0  0  0  0  0  0  0  0  0
   -0.8338   -2.3924   -1.6562 H   0  0  0  0  0  0  0  0  0  0  0  0
   -0.9796   -3.7885   -0.5595 H   0  0  0  0  0  0  0  0  0  0  0  0
    0.5309   -2.8578   -0.5864 H   0  0  0  0  0  0  0  0  0  0  0  0
   -1.2507   -1.7821    0.6431 S   0  0  0  0  0  0  0  0  0  0  0  0
  1 18  1  0  0  0  0
  1  2  1  0  0  0  0
  2  3  2  0  0  0  0
  3 11  1  0  0  0  0
  4  3  1  0  0  0  0
  4 12  1  0  0  0  0
  5  4  2  0  0  0  0
  6  1  2  0  0  0  0
  6  5  1  0  0  0  0
  7  6  1  0  0  0  0
  7  9  2  0  0  0  0
  8  7  2  0  0  0  0
 13  5  1  0  0  0  0
 14 17  1  0  0  0  0
 14 16  1  0  0  0  0
 14 18  1  0  0  0  0
 15 14  1  0  0  0  0
M  END
$$$$
Coordinates from ORCA-job TS_search_opt_without_h_MEP E -990.305416699445
 OpenBabel09152311013D

 18 17  0  0  0  0  0  0  0  0999 V2000
    0.0748   -0.3849    0.6300 C   0  0  0  0  0  0  0  0  0  0  0  0
    1.3678   -0.2705    0.9304 N   0  0  0  0  0  0  0  0  0  0  0  0
    1.9184    0.9424    1.0116 C   0  0  0  0  0  0  0  0  0  0  0  0
    1.2177    2.1199    0.8026 C   0  0  0  0  0  0  0  0  0  0  0  0
   -0.1271    2.0277    0.4996 C   0  0  0  0  0  0  0  0  0  0  0  0
   -0.6908    0.7645    0.4080 C   0  0  0  0  0  0  0  0  0  0  0  0
   -2.1190    0.7284    0.0653 N   0  0  0  0  0  0  0  0  0  0  0  0
   -2.5118   -0.0795   -0.7474 O   0  0  0  0  0  0  0  0  0  0  0  0
   -2.8361    1.5455    0.6135 O   0  0  0  0  0  0  0  0  0  0  0  0
    2.8372   -2.3225   -1.7058 F   0  0  0  0  0 15  0  0  0  0  0  0
    2.9768    0.9670    1.2513 H   0  0  0  0  0  0  0  0  0  0  0  0
    1.7124    3.0803    0.8765 H   0  0  0  0  0  0  0  0  0  0  0  0
   -0.7360    2.9079    0.3272 H   0  0  0  0  0  0  0  0  0  0  0  0
   -0.6206   -2.4171   -1.1449 C   0  0  0  0  0  0  0  0  0  0  0  0
   -1.3078   -1.7569   -1.6670 H   0  0  0  0  0  0  0  0  0  0  0  0
   -0.9734   -3.4475   -1.2217 H   0  0  0  0  0  0  0  0  0  0  0  0
    0.3888   -2.3543   -1.5599 H   0  0  0  0  0  0  0  0  0  0  0  0
   -0.5713   -2.0502    0.6308 S   0  0  0  0  0  0  0  0  0  0  0  0
  1 18  1  0  0  0  0
  1  2  1  0  0  0  0
  2  3  2  0  0  0  0
  3 11  1  0  0  0  0
  4 12  1  0  0  0  0
  4  3  1  0  0  0  0
  5  4  2  0  0  0  0
  6  5  1  0  0  0  0
  6  1  2  0  0  0  0
  7  6  1  0  0  0  0
  7  9  2  0  0  0  0
  8  7  2  0  0  0  0
 13  5  1  0  0  0  0
 14 18  1  0  0  0  0
 15 14  1  0  0  0  0
 16 14  1  0  0  0  0
 17 14  1  0  0  0  0
M  END
$$$$
