18

C          0.00000        0.00000        1.82000
N          1.17800       -0.19600        2.47300
C          1.25500       -0.20700        3.82900
C          0.10500       -0.01600        4.59500
C         -1.11600        0.18700        3.95500
C         -1.19200        0.19800        2.55100
N         -2.45600        0.40900        1.89300
O         -2.54100        0.42300        0.64800
O         -3.60200        0.60000        2.63200
F          0.00000        0.00000        0.47000
H          2.20900       -0.36600        4.31300
H          0.16300       -0.02600        5.67600
H         -2.00500        0.33500        4.55700
C         -7.12200        5.17400        0.00000
H         -7.48400        5.31000       -1.02300
H         -6.87400        6.15100        0.42300
H         -7.91400        4.71700        0.59900
S         -5.66300        4.11400        0.00000
