Coordinates from ORCA-job TS_search_opt_without_h_MEP E -990.267558425171
 OpenBabel09152311013D

 18 17  0  0  0  0  0  0  0  0999 V2000
    1.5882   -0.9038    1.5998 C   0  0  0  0  0  0  0  0  0  0  0  0
    2.7113   -1.0891    2.2245 N   0  0  0  0  0  0  0  0  0  0  0  0
    2.7821   -1.0991    3.5553 C   0  0  0  0  0  0  0  0  0  0  0  0
    1.6740   -0.9166    4.3527 C   0  0  0  0  0  0  0  0  0  0  0  0
    0.4676   -0.7177    3.7135 C   0  0  0  0  0  0  0  0  0  0  0  0
    0.3948   -0.7072    2.3289 C   0  0  0  0  0  0  0  0  0  0  0  0
   -0.8685   -0.4981    1.6689 N   0  0  0  0  0  0  0  0  0  0  0  0
   -0.9516   -0.4844    0.4238 O   0  0  0  0  0  0  0  0  0  0  0  0
   -1.8413   -0.3373    2.3795 O   0  0  0  0  0  0  0  0  0  0  0  0
    1.5903   -0.9040    0.2498 F   0  0  0  0  0  0  0  0  0  0  0  0
    3.7674   -1.2592    3.9795 H   0  0  0  0  0  0  0  0  0  0  0  0
    1.7437   -0.9271    5.4324 H   0  0  0  0  0  0  0  0  0  0  0  0
   -0.4403   -0.5679    4.2829 H   0  0  0  0  0  0  0  0  0  0  0  0
   -2.5882    2.1298   -7.3492 C   0  0  0  0  0  0  0  0  0  0  0  0
   -2.1552    1.6893   -8.2515 H   0  0  0  0  0  0  0  0  0  0  0  0
   -2.4936    3.2180   -7.4023 H   0  0  0  0  0  0  0  0  0  0  0  0
   -3.6484    1.8663   -7.2998 H   0  0  0  0  0  0  0  0  0  0  0  0
   -1.7326    1.5083   -5.8888 S   0  0  0  0  0  1  0  0  0  0  0  0
  1  2  2  0  0  0  0
  1  6  1  0  0  0  0
  2  3  1  0  0  0  0
  3 11  1  0  0  0  0
  3  4  2  0  0  0  0
  4 12  1  0  0  0  0
  5 13  1  0  0  0  0
  5  4  1  0  0  0  0
  6  5  2  0  0  0  0
  7  6  1  0  0  0  0
  7  9  2  0  0  0  0
  8  7  2  0  0  0  0
 10  1  1  0  0  0  0
 14 17  1  0  0  0  0
 14 18  1  0  0  0  0
 15 14  1  0  0  0  0
 16 14  1  0  0  0  0
M  END
$$$$
Coordinates from ORCA-job TS_search_opt_without_h_MEP E -990.272046598996
 OpenBabel09152311013D

 18 17  0  0  0  0  0  0  0  0999 V2000
    1.2350   -0.4683    0.9124 C   0  0  0  0  0  0  0  0  0  0  0  0
    2.4299   -0.6803    1.3895 N   0  0  0  0  0  0  0  0  0  0  0  0
    2.5615   -0.8357    2.7125 C   0  0  0  0  0  0  0  0  0  0  0  0
    1.4993   -0.7368    3.5952 C   0  0  0  0  0  0  0  0  0  0  0  0
    0.2279   -0.5826    3.0710 C   0  0  0  0  0  0  0  0  0  0  0  0
    0.0804   -0.4793    1.6971 C   0  0  0  0  0  0  0  0  0  0  0  0
   -1.2723   -0.4211    1.1422 N   0  0  0  0  0  0  0  0  0  0  0  0
   -1.4143   -0.1830   -0.0403 O   0  0  0  0  0  0  0  0  0  0  0  0
   -2.1962   -0.6366    1.9036 O   0  0  0  0  0  0  0  0  0  0  0  0
    1.1839   -0.2240   -0.3951 F   0  0  0  0  0  0  0  0  0  0  0  0
    3.5662   -1.0387    3.0688 H   0  0  0  0  0  0  0  0  0  0  0  0
    1.6599   -0.7949    4.6640 H   0  0  0  0  0  0  0  0  0  0  0  0
   -0.6475   -0.5415    3.7054 H   0  0  0  0  0  0  0  0  0  0  0  0
   -1.8489    1.5982   -5.5591 C   0  0  0  0  0  0  0  0  0  0  0  0
   -2.2073    1.0521   -6.4297 H   0  0  0  0  0  0  0  0  0  0  0  0
   -1.2876    2.4564   -5.9310 H   0  0  0  0  0  0  0  0  0  0  0  0
   -2.7236    1.9903   -5.0430 H   0  0  0  0  0  0  0  0  0  0  0  0
   -0.8464    0.5258   -4.4636 S   0  0  0  0  0  1  0  0  0  0  0  0
  1  2  2  0  0  0  0
  1  6  1  0  0  0  0
  2  3  1  0  0  0  0
  3 11  1  0  0  0  0
  3  4  2  0  0  0  0
  4 12  1  0  0  0  0
  5  4  1  0  0  0  0
  5 13  1  0  0  0  0
  6  5  2  0  0  0  0
  7  6  1  0  0  0  0
  7  9  2  0  0  0  0
  8  7  2  0  0  0  0
 10  1  1  0  0  0  0
 14 17  1  0  0  0  0
 14 18  1  0  0  0  0
 15 14  1  0  0  0  0
 16 14  1  0  0  0  0
M  END
$$$$
Coordinates from ORCA-job TS_search_opt_without_h_MEP E -990.249603612483
 OpenBabel09152311013D

 18 17  0  0  0  0  0  0  0  0999 V2000
    1.0881   -0.2527    0.5964 C   0  0  0  0  0  0  0  0  0  0  0  0
    2.2514   -0.5556    1.0814 N   0  0  0  0  0  0  0  0  0  0  0  0
    2.4426   -0.7322    2.3815 C   0  0  0  0  0  0  0  0  0  0  0  0
    1.3959   -0.6321    3.2793 C   0  0  0  0  0  0  0  0  0  0  0  0
    0.1141   -0.5717    2.7578 C   0  0  0  0  0  0  0  0  0  0  0  0
   -0.0829   -0.4450    1.3766 C   0  0  0  0  0  0  0  0  0  0  0  0
   -1.4855   -0.5202    0.9128 N   0  0  0  0  0  0  0  0  0  0  0  0
   -1.7295   -0.1989   -0.2326 O   0  0  0  0  0  0  0  0  0  0  0  0
   -2.3266   -0.9284    1.6938 O   0  0  0  0  0  0  0  0  0  0  0  0
    1.2706    0.4279   -0.5786 F   0  0  0  0  0  0  0  0  0  0  0  0
    3.4763   -0.8652    2.6805 H   0  0  0  0  0  0  0  0  0  0  0  0
    1.5806   -0.6117    4.3443 H   0  0  0  0  0  0  0  0  0  0  0  0
   -0.7456   -0.5777    3.4272 H   0  0  0  0  0  0  0  0  0  0  0  0
   -1.5073    1.3940   -4.7878 C   0  0  0  0  0  0  0  0  0  0  0  0
   -2.5895    1.2457   -4.8480 H   0  0  0  0  0  0  0  0  0  0  0  0
   -1.1568    1.6455   -5.7935 H   0  0  0  0  0  0  0  0  0  0  0  0
   -1.3341    2.2703   -4.1555 H   0  0  0  0  0  0  0  0  0  0  0  0
   -0.6617   -0.0919   -4.1358 S   0  0  0  0  0  1  0  0  0  0  0  0
  1  2  2  0  0  0  0
  1  6  1  0  0  0  0
  2  3  1  0  0  0  0
  3 11  1  0  0  0  0
  3  4  2  0  0  0  0
  4 12  1  0  0  0  0
  5  4  1  0  0  0  0
  5 13  1  0  0  0  0
  6  5  2  0  0  0  0
  7  6  1  0  0  0  0
  7  9  2  0  0  0  0
  8  7  2  0  0  0  0
 10  1  1  0  0  0  0
 14 17  1  0  0  0  0
 14 18  1  0  0  0  0
 15 14  1  0  0  0  0
 16 14  1  0  0  0  0
M  END
$$$$
Coordinates from ORCA-job TS_search_opt_without_h_MEP E -990.142537081494
 OpenBabel09152311013D

 18 16  0  0  0  0  0  0  0  0999 V2000
    0.9926   -0.4200    0.6424 C   0  0  0  0  0  3  0  0  0  0  0  0
    2.1109   -0.6474    1.0610 N   0  0  0  0  0  0  0  0  0  0  0  0
    2.4376   -0.7178    2.3540 C   0  0  0  0  0  0  0  0  0  0  0  0
    1.3921   -0.6131    3.2500 C   0  0  0  0  0  0  0  0  0  0  0  0
    0.0837   -0.5790    2.7682 C   0  0  0  0  0  0  0  0  0  0  0  0
   -0.1889   -0.5233    1.3965 C   0  0  0  0  0  0  0  0  0  0  0  0
   -1.5838   -0.5753    0.9309 N   0  0  0  0  0  0  0  0  0  0  0  0
   -1.8039   -0.2320   -0.2092 O   0  0  0  0  0  0  0  0  0  0  0  0
   -2.4226   -0.9696    1.7148 O   0  0  0  0  0  0  0  0  0  0  0  0
    1.7839    0.7905   -0.8034 F   0  0  0  0  0 15  0  0  0  0  0  0
    3.4883   -0.7819    2.6007 H   0  0  0  0  0  0  0  0  0  0  0  0
    1.6029   -0.5717    4.3095 H   0  0  0  0  0  0  0  0  0  0  0  0
   -0.7489   -0.5592    3.4689 H   0  0  0  0  0  0  0  0  0  0  0  0
   -1.4845    1.3817   -4.7396 C   0  0  0  0  0  0  0  0  0  0  0  0
   -2.5738    1.2735   -4.7385 H   0  0  0  0  0  0  0  0  0  0  0  0
   -1.1810    1.5987   -5.7692 H   0  0  0  0  0  0  0  0  0  0  0  0
   -1.2451    2.2655   -4.1388 H   0  0  0  0  0  0  0  0  0  0  0  0
   -0.6594   -0.1197   -4.0980 S   0  0  0  0  0  1  0  0  0  0  0  0
  1  2  2  0  0  0  0
  1  6  1  0  0  0  0
  2  3  1  0  0  0  0
  3 11  1  0  0  0  0
  3  4  2  0  0  0  0
  4 12  1  0  0  0  0
  5  4  1  0  0  0  0
  5 13  1  0  0  0  0
  6  5  2  0  0  0  0
  7  6  1  0  0  0  0
  7  9  2  0  0  0  0
  8  7  2  0  0  0  0
 14 15  1  0  0  0  0
 14 17  1  0  0  0  0
 14 18  1  0  0  0  0
 16 14  1  0  0  0  0
M  END
$$$$
Coordinates from ORCA-job TS_search_opt_without_h_MEP E -990.116748398336
 OpenBabel09152311013D

 18 16  0  0  0  0  0  0  0  0999 V2000
    0.8772   -0.6113    0.7262 C   0  0  0  0  0  3  0  0  0  0  0  0
    2.0193   -0.6945    1.0236 N   0  0  0  0  0  0  0  0  0  0  0  0
    2.4325   -0.6749    2.3170 C   0  0  0  0  0  0  0  0  0  0  0  0
    1.3941   -0.5993    3.2265 C   0  0  0  0  0  0  0  0  0  0  0  0
    0.0596   -0.5844    2.7979 C   0  0  0  0  0  0  0  0  0  0  0  0
   -0.2834   -0.6060    1.4460 C   0  0  0  0  0  0  0  0  0  0  0  0
   -1.6535   -0.6141    0.9534 N   0  0  0  0  0  0  0  0  0  0  0  0
   -1.8317   -0.2471   -0.1855 O   0  0  0  0  0  0  0  0  0  0  0  0
   -2.5034   -0.9912    1.7265 O   0  0  0  0  0  0  0  0  0  0  0  0
    2.2233    1.0734   -1.0028 F   0  0  0  0  0 15  0  0  0  0  0  0
    3.4883   -0.7194    2.5426 H   0  0  0  0  0  0  0  0  0  0  0  0
    1.6247   -0.5620    4.2829 H   0  0  0  0  0  0  0  0  0  0  0  0
   -0.7553   -0.5410    3.5166 H   0  0  0  0  0  0  0  0  0  0  0  0
   -1.4744    1.3771   -4.7178 C   0  0  0  0  0  0  0  0  0  0  0  0
   -2.5636    1.2843   -4.6902 H   0  0  0  0  0  0  0  0  0  0  0  0
   -1.1920    1.5777   -5.7555 H   0  0  0  0  0  0  0  0  0  0  0  0
   -1.2083    2.2621   -4.1330 H   0  0  0  0  0  0  0  0  0  0  0  0
   -0.6535   -0.1292   -4.0744 S   0  0  0  0  0  1  0  0  0  0  0  0
  1  2  2  0  0  0  0
  1  6  1  0  0  0  0
  2  3  1  0  0  0  0
  3 11  1  0  0  0  0
  3  4  2  0  0  0  0
  4 12  1  0  0  0  0
  5  4  1  0  0  0  0
  5 13  1  0  0  0  0
  6  5  2  0  0  0  0
  7  6  1  0  0  0  0
  7  9  2  0  0  0  0
  8  7  2  0  0  0  0
 14 15  1  0  0  0  0
 14 17  1  0  0  0  0
 14 18  1  0  0  0  0
 16 14  1  0  0  0  0
M  END
$$$$
Coordinates from ORCA-job TS_search_opt_without_h_MEP E -990.114559914372
 OpenBabel09152311013D

 18 16  0  0  0  0  0  0  0  0999 V2000
    0.8021   -0.6372    0.6784 C   0  0  0  0  0  3  0  0  0  0  0  0
    1.9527   -0.6794    0.9398 N   0  0  0  0  0  0  0  0  0  0  0  0
    2.3944   -0.6289    2.2281 C   0  0  0  0  0  0  0  0  0  0  0  0
    1.3707   -0.5749    3.1564 C   0  0  0  0  0  0  0  0  0  0  0  0
    0.0275   -0.5892    2.7569 C   0  0  0  0  0  0  0  0  0  0  0  0
   -0.3450   -0.6337    1.4134 C   0  0  0  0  0  0  0  0  0  0  0  0
   -1.7191   -0.6484    0.9338 N   0  0  0  0  0  0  0  0  0  0  0  0
   -1.9102   -0.2466   -0.1911 O   0  0  0  0  0  0  0  0  0  0  0  0
   -2.5548   -1.0606    1.7035 O   0  0  0  0  0  0  0  0  0  0  0  0
    2.4317    1.2612   -1.0780 F   0  0  0  0  0 15  0  0  0  0  0  0
    3.4562   -0.6453    2.4351 H   0  0  0  0  0  0  0  0  0  0  0  0
    1.6209   -0.5294    4.2073 H   0  0  0  0  0  0  0  0  0  0  0  0
   -0.7744   -0.5492    3.4894 H   0  0  0  0  0  0  0  0  0  0  0  0
   -1.4017    1.3366   -4.5746 C   0  0  0  0  0  0  0  0  0  0  0  0
   -2.4763    1.3752   -4.3645 H   0  0  0  0  0  0  0  0  0  0  0  0
   -1.2795    1.4471   -5.6580 H   0  0  0  0  0  0  0  0  0  0  0  0
   -0.9484    2.2175   -4.1068 H   0  0  0  0  0  0  0  0  0  0  0  0
   -0.6470   -0.2151   -3.9692 S   0  0  0  0  0  1  0  0  0  0  0  0
  1  2  2  0  0  0  0
  1  6  1  0  0  0  0
  2  3  1  0  0  0  0
  3 11  1  0  0  0  0
  3  4  2  0  0  0  0
  4 12  1  0  0  0  0
  5  4  1  0  0  0  0
  5 13  1  0  0  0  0
  6  5  2  0  0  0  0
  7  6  1  0  0  0  0
  7  9  2  0  0  0  0
  8  7  2  0  0  0  0
 14 15  1  0  0  0  0
 14 17  1  0  0  0  0
 14 18  1  0  0  0  0
 16 14  1  0  0  0  0
M  END
$$$$
Coordinates from ORCA-job TS_search_opt_without_h_MEP E -990.115077062121
 OpenBabel09152311013D

 18 16  0  0  0  0  0  0  0  0999 V2000
    0.6728   -0.6118    0.5183 C   0  0  0  0  0  3  0  0  0  0  0  0
    1.8359   -0.6189    0.7457 N   0  0  0  0  0  0  0  0  0  0  0  0
    2.3184   -0.5585    2.0191 C   0  0  0  0  0  0  0  0  0  0  0  0
    1.3282   -0.5327    2.9836 C   0  0  0  0  0  0  0  0  0  0  0  0
   -0.0281   -0.5783    2.6310 C   0  0  0  0  0  0  0  0  0  0  0  0
   -0.4423   -0.6318    1.3023 C   0  0  0  0  0  0  0  0  0  0  0  0
   -1.8350   -0.6681    0.8815 N   0  0  0  0  0  0  0  0  0  0  0  0
   -2.0987   -0.1820   -0.1925 O   0  0  0  0  0  0  0  0  0  0  0  0
   -2.6172   -1.1777    1.6505 O   0  0  0  0  0  0  0  0  0  0  0  0
    2.5947    1.5230   -1.1785 F   0  0  0  0  0 15  0  0  0  0  0  0
    3.3854   -0.5489    2.1942 H   0  0  0  0  0  0  0  0  0  0  0  0
    1.6121   -0.4833    4.0276 H   0  0  0  0  0  0  0  0  0  0  0  0
   -0.8041   -0.5548    3.3922 H   0  0  0  0  0  0  0  0  0  0  0  0
   -1.2317    1.2349   -4.2321 C   0  0  0  0  0  0  0  0  0  0  0  0
   -2.2173    1.4458   -3.8065 H   0  0  0  0  0  0  0  0  0  0  0  0
   -1.3412    1.2409   -5.3214 H   0  0  0  0  0  0  0  0  0  0  0  0
   -0.5740    2.0674   -3.9678 H   0  0  0  0  0  0  0  0  0  0  0  0
   -0.5582   -0.3650   -3.6471 S   0  0  0  0  0  1  0  0  0  0  0  0
  1  2  2  0  0  0  0
  1  6  1  0  0  0  0
  2  3  1  0  0  0  0
  3 11  1  0  0  0  0
  3  4  2  0  0  0  0
  4 12  1  0  0  0  0
  5  4  1  0  0  0  0
  5 13  1  0  0  0  0
  6  5  2  0  0  0  0
  7  6  1  0  0  0  0
  7  9  2  0  0  0  0
  8  7  2  0  0  0  0
 14 17  1  0  0  0  0
 14 15  1  0  0  0  0
 14 18  1  0  0  0  0
 16 14  1  0  0  0  0
M  END
$$$$
Coordinates from ORCA-job TS_search_opt_without_h_MEP E -990.134623511445
 OpenBabel09152311013D

 18 16  0  0  0  0  0  0  0  0999 V2000
    0.5472   -0.5209    0.2466 C   0  0  0  0  0  3  0  0  0  0  0  0
    1.7474   -0.5595    0.5243 N   0  0  0  0  0  0  0  0  0  0  0  0
    2.2109   -0.5510    1.8025 C   0  0  0  0  0  0  0  0  0  0  0  0
    1.2766   -0.5289    2.8193 C   0  0  0  0  0  0  0  0  0  0  0  0
   -0.0805   -0.5617    2.4985 C   0  0  0  0  0  0  0  0  0  0  0  0
   -0.4840   -0.5709    1.1699 C   0  0  0  0  0  0  0  0  0  0  0  0
   -1.8986   -0.6283    0.8271 N   0  0  0  0  0  0  0  0  0  0  0  0
   -2.2572   -0.0772   -0.1864 O   0  0  0  0  0  0  0  0  0  0  0  0
   -2.6242   -1.2301    1.5950 O   0  0  0  0  0  0  0  0  0  0  0  0
    2.7621    1.7550   -1.2974 F   0  0  0  0  0 15  0  0  0  0  0  0
    3.2815   -0.5612    1.9806 H   0  0  0  0  0  0  0  0  0  0  0  0
    1.5959   -0.4941    3.8559 H   0  0  0  0  0  0  0  0  0  0  0  0
   -0.8349   -0.5604    3.2797 H   0  0  0  0  0  0  0  0  0  0  0  0
   -1.1018    1.1258   -3.8636 C   0  0  0  0  0  0  0  0  0  0  0  0
   -2.1240    1.3498   -3.5471 H   0  0  0  0  0  0  0  0  0  0  0  0
   -1.1496    0.9273   -4.9464 H   0  0  0  0  0  0  0  0  0  0  0  0
   -0.4892    2.0222   -3.7463 H   0  0  0  0  0  0  0  0  0  0  0  0
   -0.3775   -0.3358   -3.0123 S   0  0  0  0  0  1  0  0  0  0  0  0
  1  2  2  0  0  0  0
  1  6  1  0  0  0  0
  2  3  1  0  0  0  0
  3 11  1  0  0  0  0
  3  4  2  0  0  0  0
  4 12  1  0  0  0  0
  5  4  1  0  0  0  0
  5 13  1  0  0  0  0
  6  5  2  0  0  0  0
  7  6  1  0  0  0  0
  7  9  2  0  0  0  0
  8  7  2  0  0  0  0
 14 17  1  0  0  0  0
 14 15  1  0  0  0  0
 14 18  1  0  0  0  0
 16 14  1  0  0  0  0
M  END
$$$$
Coordinates from ORCA-job TS_search_opt_without_h_MEP E -990.207811803197
 OpenBabel09152311013D

 18 16  0  0  0  0  0  0  0  0999 V2000
    0.3997   -0.3854   -0.0485 C   0  0  0  0  0  3  0  0  0  0  0  0
    1.6589   -0.4791    0.2635 N   0  0  0  0  0  0  0  0  0  0  0  0
    2.0906   -0.5278    1.5507 C   0  0  0  0  0  0  0  0  0  0  0  0
    1.2200   -0.5109    2.6272 C   0  0  0  0  0  0  0  0  0  0  0  0
   -0.1335   -0.5360    2.3321 C   0  0  0  0  0  0  0  0  0  0  0  0
   -0.5362   -0.4923    0.9971 C   0  0  0  0  0  0  0  0  0  0  0  0
   -1.9663   -0.5843    0.7445 N   0  0  0  0  0  0  0  0  0  0  0  0
   -2.4083   -0.0109   -0.2264 O   0  0  0  0  0  0  0  0  0  0  0  0
   -2.6365   -1.2409    1.5218 O   0  0  0  0  0  0  0  0  0  0  0  0
    2.8957    1.9579   -1.4066 F   0  0  0  0  0 15  0  0  0  0  0  0
    3.1647   -0.5693    1.7377 H   0  0  0  0  0  0  0  0  0  0  0  0
    1.5738   -0.4965    3.6583 H   0  0  0  0  0  0  0  0  0  0  0  0
   -0.8698   -0.5680    3.1317 H   0  0  0  0  0  0  0  0  0  0  0  0
   -0.9572    1.0114   -3.4211 C   0  0  0  0  0  0  0  0  0  0  0  0
   -2.0049    1.2396   -3.2078 H   0  0  0  0  0  0  0  0  0  0  0  0
   -0.9502    0.6268   -4.4621 H   0  0  0  0  0  0  0  0  0  0  0  0
   -0.3790    1.9363   -3.4580 H   0  0  0  0  0  0  0  0  0  0  0  0
   -0.1615   -0.3706   -2.3340 S   0  0  0  0  0  1  0  0  0  0  0  0
  1  2  2  0  0  0  0
  1  6  1  0  0  0  0
  2  3  1  0  0  0  0
  3 11  1  0  0  0  0
  3  4  2  0  0  0  0
  4 12  1  0  0  0  0
  5  4  1  0  0  0  0
  5 13  1  0  0  0  0
  6  5  2  0  0  0  0
  7  6  1  0  0  0  0
  7  9  2  0  0  0  0
  8  7  2  0  0  0  0
 14 15  1  0  0  0  0
 14 18  1  0  0  0  0
 16 14  1  0  0  0  0
 17 14  1  0  0  0  0
M  END
$$$$
Coordinates from ORCA-job TS_search_opt_without_h_MEP E -990.305398419670
 OpenBabel09152311013D

 18 17  0  0  0  0  0  0  0  0999 V2000
    0.2843   -0.6051   -0.3217 C   0  0  0  0  0  0  0  0  0  0  0  0
    1.5851   -0.5436   -0.0397 N   0  0  0  0  0  0  0  0  0  0  0  0
    1.9766   -0.4155    1.2295 C   0  0  0  0  0  0  0  0  0  0  0  0
    1.0998   -0.3438    2.3005 C   0  0  0  0  0  0  0  0  0  0  0  0
   -0.2539   -0.4156    2.0345 C   0  0  0  0  0  0  0  0  0  0  0  0
   -0.6543   -0.5396    0.7133 C   0  0  0  0  0  0  0  0  0  0  0  0
   -2.1055   -0.5928    0.4903 N   0  0  0  0  0  0  0  0  0  0  0  0
   -2.5876    0.0451   -0.4197 O   0  0  0  0  0  0  0  0  0  0  0  0
   -2.7554   -1.2717    1.2640 O   0  0  0  0  0  0  0  0  0  0  0  0
    2.5739    2.2853   -2.1222 F   0  0  0  0  0 15  0  0  0  0  0  0
    3.0486   -0.3626    1.3915 H   0  0  0  0  0  0  0  0  0  0  0  0
    1.4686   -0.2360    3.3129 H   0  0  0  0  0  0  0  0  0  0  0  0
   -0.9950   -0.3692    2.8243 H   0  0  0  0  0  0  0  0  0  0  0  0
   -0.5785    0.8180   -2.5561 C   0  0  0  0  0  0  0  0  0  0  0  0
   -1.4567    1.1695   -2.0214 H   0  0  0  0  0  0  0  0  0  0  0  0
   -0.8032    0.7475   -3.6222 H   0  0  0  0  0  0  0  0  0  0  0  0
    0.2722    1.4899   -2.4150 H   0  0  0  0  0  0  0  0  0  0  0  0
   -0.1190   -0.8598   -2.0429 S   0  0  0  0  0  0  0  0  0  0  0  0
  1  2  2  0  0  0  0
  1  6  1  0  0  0  0
  2  3  1  0  0  0  0
  3 11  1  0  0  0  0
  3  4  2  0  0  0  0
  4 12  1  0  0  0  0
  5  4  1  0  0  0  0
  5 13  1  0  0  0  0
  6  5  2  0  0  0  0
  7  6  1  0  0  0  0
  7  9  2  0  0  0  0
  8  7  2  0  0  0  0
 14 17  1  0  0  0  0
 14 18  1  0  0  0  0
 14 15  1  0  0  0  0
 16 14  1  0  0  0  0
 18  1  1  0  0  0  0
M  END
$$$$
