Coordinates from ORCA-job TS_search_opt_without_h_MEP E -990.268788449843
 OpenBabel09152311013D

 18 17  0  0  0  0  0  0  0  0999 V2000
   -1.1010    1.0262   -1.7325 C   0  0  0  0  0  0  0  0  0  0  0  0
    0.0122    0.8498   -1.0880 N   0  0  0  0  0  0  0  0  0  0  0  0
    0.0648    0.8755    0.2434 C   0  0  0  0  0  0  0  0  0  0  0  0
   -1.0521    1.0875    1.0209 C   0  0  0  0  0  0  0  0  0  0  0  0
   -2.2482    1.2776    0.3602 C   0  0  0  0  0  0  0  0  0  0  0  0
   -2.3025    1.2510   -1.0252 C   0  0  0  0  0  0  0  0  0  0  0  0
   -3.5553    1.4513   -1.7076 N   0  0  0  0  0  0  0  0  0  0  0  0
   -3.6217    1.4317   -2.9536 O   0  0  0  0  0  0  0  0  0  0  0  0
   -4.5362    1.6382   -1.0148 O   0  0  0  0  0  0  0  0  0  0  0  0
   -1.0809    0.9893   -3.0819 F   0  0  0  0  0  0  0  0  0  0  0  0
    1.0442    0.7261    0.6844 H   0  0  0  0  0  0  0  0  0  0  0  0
   -0.9962    1.1035    2.1015 H   0  0  0  0  0  0  0  0  0  0  0  0
   -3.1631    1.4494    0.9124 H   0  0  0  0  0  0  0  0  0  0  0  0
    4.5979   -3.0953    1.5360 C   0  0  0  0  0  0  0  0  0  0  0  0
    4.5130   -4.1775    1.4033 H   0  0  0  0  0  0  0  0  0  0  0  0
    4.4140   -2.8503    2.5857 H   0  0  0  0  0  0  0  0  0  0  0  0
    5.6114   -2.7831    1.2692 H   0  0  0  0  0  0  0  0  0  0  0  0
    3.3996   -2.2510    0.4865 S   0  0  0  0  0  1  0  0  0  0  0  0
  1  2  2  0  0  0  0
  1  6  1  0  0  0  0
  2  3  1  0  0  0  0
  3 11  1  0  0  0  0
  3  4  2  0  0  0  0
  4 12  1  0  0  0  0
  5 13  1  0  0  0  0
  5  4  1  0  0  0  0
  6  5  2  0  0  0  0
  7  6  1  0  0  0  0
  7  9  2  0  0  0  0
  8  7  2  0  0  0  0
 10  1  1  0  0  0  0
 14 16  1  0  0  0  0
 15 14  1  0  0  0  0
 17 14  1  0  0  0  0
 18 14  1  0  0  0  0
M  END
$$$$
Coordinates from ORCA-job TS_search_opt_without_h_MEP E -990.273185470000
 OpenBabel09152311013D

 18 17  0  0  0  0  0  0  0  0999 V2000
   -0.4245    0.8252   -1.2127 C   0  0  0  0  0  0  0  0  0  0  0  0
    0.5377    1.2754   -0.4582 N   0  0  0  0  0  0  0  0  0  0  0  0
    0.2208    1.7485    0.7517 C   0  0  0  0  0  0  0  0  0  0  0  0
   -1.0803    1.8233    1.2200 C   0  0  0  0  0  0  0  0  0  0  0  0
   -2.0958    1.3411    0.4116 C   0  0  0  0  0  0  0  0  0  0  0  0
   -1.7666    0.8092   -0.8265 C   0  0  0  0  0  0  0  0  0  0  0  0
   -2.8351    0.2690   -1.6662 N   0  0  0  0  0  0  0  0  0  0  0  0
   -2.5559   -0.1525   -2.7705 O   0  0  0  0  0  0  0  0  0  0  0  0
   -3.9623    0.2659   -1.2085 O   0  0  0  0  0  0  0  0  0  0  0  0
   -0.0406    0.3778   -2.4075 F   0  0  0  0  0  0  0  0  0  0  0  0
    1.0505    2.0883    1.3626 H   0  0  0  0  0  0  0  0  0  0  0  0
   -1.2909    2.2489    2.1928 H   0  0  0  0  0  0  0  0  0  0  0  0
   -3.1338    1.3732    0.7205 H   0  0  0  0  0  0  0  0  0  0  0  0
    3.5784   -2.9259    0.7661 C   0  0  0  0  0  0  0  0  0  0  0  0
    3.4369   -3.7608    0.0726 H   0  0  0  0  0  0  0  0  0  0  0  0
    3.9170   -3.3471    1.7176 H   0  0  0  0  0  0  0  0  0  0  0  0
    4.3968   -2.3155    0.3715 H   0  0  0  0  0  0  0  0  0  0  0  0
    2.0475   -1.9441    0.9633 S   0  0  0  0  0  1  0  0  0  0  0  0
  1  6  2  0  0  0  0
  1  2  1  0  0  0  0
  2  3  2  0  0  0  0
  3  4  1  0  0  0  0
  3 11  1  0  0  0  0
  4 12  1  0  0  0  0
  5 13  1  0  0  0  0
  5  4  2  0  0  0  0
  6  5  1  0  0  0  0
  7  9  2  0  0  0  0
  7  6  1  0  0  0  0
  8  7  2  0  0  0  0
 10  1  1  0  0  0  0
 14 18  1  0  0  0  0
 14 16  1  0  0  0  0
 15 14  1  0  0  0  0
 17 14  1  0  0  0  0
M  END
$$$$
Coordinates from ORCA-job TS_search_opt_without_h_MEP E -990.249744660862
 OpenBabel09152311013D

 18 17  0  0  0  0  0  0  0  0999 V2000
   -0.1934    0.5785   -0.8936 C   0  0  0  0  0  0  0  0  0  0  0  0
    0.6528    1.0173   -0.0189 N   0  0  0  0  0  0  0  0  0  0  0  0
    0.2311    1.6769    1.0571 C   0  0  0  0  0  0  0  0  0  0  0  0
   -1.1019    2.0239    1.1994 C   0  0  0  0  0  0  0  0  0  0  0  0
   -2.0219    1.4198    0.3527 C   0  0  0  0  0  0  0  0  0  0  0  0
   -1.5743    0.5818   -0.6544 C   0  0  0  0  0  0  0  0  0  0  0  0
   -2.5393   -0.1350   -1.4765 N   0  0  0  0  0  0  0  0  0  0  0  0
   -2.1226   -0.8234   -2.3909 O   0  0  0  0  0  0  0  0  0  0  0  0
   -3.7164   -0.0390   -1.1852 O   0  0  0  0  0  0  0  0  0  0  0  0
    0.2960    0.4348   -2.1543 F   0  0  0  0  0  0  0  0  0  0  0  0
    1.0014    2.0267    1.7422 H   0  0  0  0  0  0  0  0  0  0  0  0
   -1.4040    2.7897    1.8985 H   0  0  0  0  0  0  0  0  0  0  0  0
   -3.0823    1.6329    0.4235 H   0  0  0  0  0  0  0  0  0  0  0  0
    3.2097   -2.7244    0.4363 C   0  0  0  0  0  0  0  0  0  0  0  0
    3.1113   -3.5976   -0.2145 H   0  0  0  0  0  0  0  0  0  0  0  0
    3.2485   -3.0680    1.4735 H   0  0  0  0  0  0  0  0  0  0  0  0
    4.1643   -2.2366    0.2095 H   0  0  0  0  0  0  0  0  0  0  0  0
    1.8411   -1.5584    0.1957 S   0  0  0  0  0  1  0  0  0  0  0  0
  1  6  2  0  0  0  0
  1  2  1  0  0  0  0
  2  3  2  0  0  0  0
  3  4  1  0  0  0  0
  3 11  1  0  0  0  0
  4 12  1  0  0  0  0
  5 13  1  0  0  0  0
  5  4  2  0  0  0  0
  6  5  1  0  0  0  0
  7  9  2  0  0  0  0
  7  6  1  0  0  0  0
  8  7  2  0  0  0  0
 10  1  1  0  0  0  0
 14 16  1  0  0  0  0
 15 14  1  0  0  0  0
 17 14  1  0  0  0  0
 18 14  1  0  0  0  0
M  END
$$$$
Coordinates from ORCA-job TS_search_opt_without_h_MEP E -990.169828576679
 OpenBabel09152311013D

 18 16  0  0  0  0  0  0  0  0999 V2000
   -0.2029    0.3078   -0.7061 C   0  0  0  0  0  3  0  0  0  0  0  0
    0.5730    0.7659    0.1543 N   0  0  0  0  0  0  0  0  0  0  0  0
    0.2397    1.6354    1.1110 C   0  0  0  0  0  0  0  0  0  0  0  0
   -1.0755    2.0539    1.1640 C   0  0  0  0  0  0  0  0  0  0  0  0
   -2.0027    1.4248    0.3307 C   0  0  0  0  0  0  0  0  0  0  0  0
   -1.5860    0.4786   -0.5950 C   0  0  0  0  0  0  0  0  0  0  0  0
   -2.5544   -0.1851   -1.4456 N   0  0  0  0  0  0  0  0  0  0  0  0
   -2.1372   -0.8451   -2.3761 O   0  0  0  0  0  0  0  0  0  0  0  0
   -3.7376   -0.0486   -1.1872 O   0  0  0  0  0  0  0  0  0  0  0  0
    0.4488    0.7183   -2.3761 F   0  0  0  0  0 15  0  0  0  0  0  0
    1.0325    2.0444    1.7265 H   0  0  0  0  0  0  0  0  0  0  0  0
   -1.3671    2.8561    1.8323 H   0  0  0  0  0  0  0  0  0  0  0  0
   -3.0504    1.7038    0.3724 H   0  0  0  0  0  0  0  0  0  0  0  0
    3.1777   -2.6701    0.4233 C   0  0  0  0  0  0  0  0  0  0  0  0
    3.0596   -3.5393   -0.2290 H   0  0  0  0  0  0  0  0  0  0  0  0
    3.1919   -3.0152    1.4605 H   0  0  0  0  0  0  0  0  0  0  0  0
    4.1449   -2.2115    0.1967 H   0  0  0  0  0  0  0  0  0  0  0  0
    1.8456   -1.4741    0.1433 S   0  0  0  0  0  1  0  0  0  0  0  0
  1  6  2  0  0  0  0
  1  2  1  0  0  0  0
  2  3  2  0  0  0  0
  3  4  1  0  0  0  0
  3 11  1  0  0  0  0
  4 12  1  0  0  0  0
  5 13  1  0  0  0  0
  5  4  2  0  0  0  0
  6  5  1  0  0  0  0
  7  9  2  0  0  0  0
  7  6  1  0  0  0  0
  8  7  2  0  0  0  0
 14 16  1  0  0  0  0
 15 14  1  0  0  0  0
 17 14  1  0  0  0  0
 18 14  1  0  0  0  0
M  END
$$$$
Coordinates from ORCA-job TS_search_opt_without_h_MEP E -990.149621654853
 OpenBabel09152311013D

 18 16  0  0  0  0  0  0  0  0999 V2000
   -0.2591    0.0768   -0.4796 C   0  0  0  0  0  3  0  0  0  0  0  0
    0.5304    0.6384    0.2796 N   0  0  0  0  0  0  0  0  0  0  0  0
    0.2472    1.6468    1.1160 C   0  0  0  0  0  0  0  0  0  0  0  0
   -1.0683    2.0674    1.1520 C   0  0  0  0  0  0  0  0  0  0  0  0
   -2.0051    1.4412    0.3253 C   0  0  0  0  0  0  0  0  0  0  0  0
   -1.5964    0.4386   -0.5394 C   0  0  0  0  0  0  0  0  0  0  0  0
   -2.5583   -0.1992   -1.4290 N   0  0  0  0  0  0  0  0  0  0  0  0
   -2.1310   -0.8355   -2.3697 O   0  0  0  0  0  0  0  0  0  0  0  0
   -3.7407   -0.0481   -1.1868 O   0  0  0  0  0  0  0  0  0  0  0  0
    0.5921    0.9049   -2.7364 F   0  0  0  0  0 15  0  0  0  0  0  0
    1.0458    2.0735    1.7104 H   0  0  0  0  0  0  0  0  0  0  0  0
   -1.3588    2.8666    1.8231 H   0  0  0  0  0  0  0  0  0  0  0  0
   -3.0482    1.7345    0.3578 H   0  0  0  0  0  0  0  0  0  0  0  0
    3.1648   -2.6462    0.4254 C   0  0  0  0  0  0  0  0  0  0  0  0
    3.0371   -3.5120   -0.2340 H   0  0  0  0  0  0  0  0  0  0  0  0
    3.1794   -3.0046    1.4572 H   0  0  0  0  0  0  0  0  0  0  0  0
    4.1341   -2.1986    0.1893 H   0  0  0  0  0  0  0  0  0  0  0  0
    1.8349   -1.4445    0.1388 S   0  0  0  0  0  1  0  0  0  0  0  0
  1  2  1  0  0  0  0
  2  3  2  0  0  0  0
  3  4  1  0  0  0  0
  3 11  1  0  0  0  0
  4 12  1  0  0  0  0
  5 13  1  0  0  0  0
  5  4  2  0  0  0  0
  6  1  2  0  0  0  0
  6  5  1  0  0  0  0
  7  9  2  0  0  0  0
  7  6  1  0  0  0  0
  8  7  2  0  0  0  0
 14 16  1  0  0  0  0
 15 14  1  0  0  0  0
 17 14  1  0  0  0  0
 18 14  1  0  0  0  0
M  END
$$$$
Coordinates from ORCA-job TS_search_opt_without_h_MEP E -990.152047493847
 OpenBabel09152311013D

 18 16  0  0  0  0  0  0  0  0999 V2000
   -0.3244   -0.0671   -0.3023 C   0  0  0  0  0  3  0  0  0  0  0  0
    0.4736    0.5583    0.4174 N   0  0  0  0  0  0  0  0  0  0  0  0
    0.2136    1.6581    1.1309 C   0  0  0  0  0  0  0  0  0  0  0  0
   -1.0912    2.1170    1.1163 C   0  0  0  0  0  0  0  0  0  0  0  0
   -2.0334    1.4489    0.3333 C   0  0  0  0  0  0  0  0  0  0  0  0
   -1.6359    0.3564   -0.4266 C   0  0  0  0  0  0  0  0  0  0  0  0
   -2.5863   -0.2912   -1.3319 N   0  0  0  0  0  0  0  0  0  0  0  0
   -2.1411   -0.9256   -2.2665 O   0  0  0  0  0  0  0  0  0  0  0  0
   -3.7711   -0.1345   -1.1115 O   0  0  0  0  0  0  0  0  0  0  0  0
    1.1533    1.2223   -3.0073 F   0  0  0  0  0 15  0  0  0  0  0  0
    1.0213    2.1240    1.6806 H   0  0  0  0  0  0  0  0  0  0  0  0
   -1.3695    2.9748    1.7168 H   0  0  0  0  0  0  0  0  0  0  0  0
   -3.0655    1.7816    0.3065 H   0  0  0  0  0  0  0  0  0  0  0  0
    3.1269   -2.6482    0.3818 C   0  0  0  0  0  0  0  0  0  0  0  0
    2.9768   -3.4855   -0.3054 H   0  0  0  0  0  0  0  0  0  0  0  0
    3.1697   -3.0437    1.4003 H   0  0  0  0  0  0  0  0  0  0  0  0
    4.0883   -2.1977    0.1219 H   0  0  0  0  0  0  0  0  0  0  0  0
    1.7949   -1.4478    0.1457 S   0  0  0  0  0  1  0  0  0  0  0  0
  1  2  1  0  0  0  0
  2  3  2  0  0  0  0
  3 11  1  0  0  0  0
  4  3  1  0  0  0  0
  4 12  1  0  0  0  0
  5  4  2  0  0  0  0
  6  1  2  0  0  0  0
  6  5  1  0  0  0  0
  7  9  2  0  0  0  0
  7  6  1  0  0  0  0
  8  7  2  0  0  0  0
 13  5  1  0  0  0  0
 14 16  1  0  0  0  0
 15 14  1  0  0  0  0
 17 14  1  0  0  0  0
 18 14  1  0  0  0  0
M  END
$$$$
Coordinates from ORCA-job TS_search_opt_without_h_MEP E -990.161310883813
 OpenBabel09152311013D

 18 16  0  0  0  0  0  0  0  0999 V2000
   -0.1924   -0.0511   -0.1476 C   0  0  0  0  0  3  0  0  0  0  0  0
    0.5428    0.7203    0.5173 N   0  0  0  0  0  0  0  0  0  0  0  0
    0.1712    1.8277    1.1458 C   0  0  0  0  0  0  0  0  0  0  0  0
   -1.1622    2.1819    1.0985 C   0  0  0  0  0  0  0  0  0  0  0  0
   -2.0207    1.4054    0.3288 C   0  0  0  0  0  0  0  0  0  0  0  0
   -1.5350    0.2851   -0.3434 C   0  0  0  0  0  0  0  0  0  0  0  0
   -2.4546   -0.4199   -1.2408 N   0  0  0  0  0  0  0  0  0  0  0  0
   -1.9739   -1.0577   -2.1549 O   0  0  0  0  0  0  0  0  0  0  0  0
   -3.6489   -0.2951   -1.0481 O   0  0  0  0  0  0  0  0  0  0  0  0
    1.3614    1.3263   -2.9823 F   0  0  0  0  0 15  0  0  0  0  0  0
    0.9401    2.3790    1.6707 H   0  0  0  0  0  0  0  0  0  0  0  0
   -1.5089    3.0535    1.6361 H   0  0  0  0  0  0  0  0  0  0  0  0
   -3.0673    1.6790    0.2400 H   0  0  0  0  0  0  0  0  0  0  0  0
    2.9727   -2.7274    0.2567 C   0  0  0  0  0  0  0  0  0  0  0  0
    2.7894   -3.5187   -0.4727 H   0  0  0  0  0  0  0  0  0  0  0  0
    3.0114   -3.1610    1.2579 H   0  0  0  0  0  0  0  0  0  0  0  0
    3.9580   -2.3060    0.0242 H   0  0  0  0  0  0  0  0  0  0  0  0
    1.8169   -1.3214    0.2139 S   0  0  0  0  0  1  0  0  0  0  0  0
  1  2  1  0  0  0  0
  2  3  2  0  0  0  0
  3 11  1  0  0  0  0
  4  3  1  0  0  0  0
  4 12  1  0  0  0  0
  5  4  2  0  0  0  0
  6  1  2  0  0  0  0
  6  5  1  0  0  0  0
  7  9  2  0  0  0  0
  7  6  1  0  0  0  0
  8  7  2  0  0  0  0
 13  5  1  0  0  0  0
 14 16  1  0  0  0  0
 15 14  1  0  0  0  0
 17 14  1  0  0  0  0
 18 14  1  0  0  0  0
M  END
$$$$
Coordinates from ORCA-job TS_search_opt_without_h_MEP E -990.180507442663
 OpenBabel09152311013D

 18 17  0  0  0  0  0  0  0  0999 V2000
    0.0152   -0.0624   -0.0910 C   0  0  0  0  0  0  0  0  0  0  0  0
    0.6910    0.8384    0.5541 N   0  0  0  0  0  0  0  0  0  0  0  0
    0.1820    1.9110    1.1335 C   0  0  0  0  0  0  0  0  0  0  0  0
   -1.1650    2.1833    1.0900 C   0  0  0  0  0  0  0  0  0  0  0  0
   -1.9464    1.3405    0.3198 C   0  0  0  0  0  0  0  0  0  0  0  0
   -1.3826    0.2181   -0.3033 C   0  0  0  0  0  0  0  0  0  0  0  0
   -2.3296   -0.4794   -1.2002 N   0  0  0  0  0  0  0  0  0  0  0  0
   -1.8689   -1.1080   -2.1305 O   0  0  0  0  0  0  0  0  0  0  0  0
   -3.5244   -0.3466   -1.0010 O   0  0  0  0  0  0  0  0  0  0  0  0
    1.4171    1.3307   -2.9696 F   0  0  0  0  0 15  0  0  0  0  0  0
    0.9045    2.5235    1.6556 H   0  0  0  0  0  0  0  0  0  0  0  0
   -1.5689    3.0384    1.6134 H   0  0  0  0  0  0  0  0  0  0  0  0
   -3.0023    1.5721    0.1960 H   0  0  0  0  0  0  0  0  0  0  0  0
    2.8421   -2.6586    0.1275 C   0  0  0  0  0  0  0  0  0  0  0  0
    2.7032   -3.4832   -0.5622 H   0  0  0  0  0  0  0  0  0  0  0  0
    2.9289   -3.0784    1.1484 H   0  0  0  0  0  0  0  0  0  0  0  0
    3.7827   -2.1360   -0.0651 H   0  0  0  0  0  0  0  0  0  0  0  0
    1.3215   -1.6032    0.4844 S   0  0  0  0  0  0  0  0  0  0  0  0
  1 18  1  0  0  0  0
  1  2  1  0  0  0  0
  2  3  2  0  0  0  0
  3 11  1  0  0  0  0
  4  3  1  0  0  0  0
  4 12  1  0  0  0  0
  5  4  2  0  0  0  0
  6  1  2  0  0  0  0
  6  5  1  0  0  0  0
  7  9  2  0  0  0  0
  7  6  1  0  0  0  0
  8  7  2  0  0  0  0
 13  5  1  0  0  0  0
 14 18  1  0  0  0  0
 14 16  1  0  0  0  0
 15 14  1  0  0  0  0
 17 14  1  0  0  0  0
M  END
$$$$
Coordinates from ORCA-job TS_search_opt_without_h_MEP E -990.262497042704
 OpenBabel09152311013D

 18 17  0  0  0  0  0  0  0  0999 V2000
    0.1235   -0.1583    0.0697 C   0  0  0  0  0  0  0  0  0  0  0  0
    0.8322    0.7748    0.6802 N   0  0  0  0  0  0  0  0  0  0  0  0
    0.2679    1.8952    1.1384 C   0  0  0  0  0  0  0  0  0  0  0  0
   -1.0870    2.1564    1.0689 C   0  0  0  0  0  0  0  0  0  0  0  0
   -1.8493    1.2773    0.3260 C   0  0  0  0  0  0  0  0  0  0  0  0
   -1.2581    0.1427   -0.2268 C   0  0  0  0  0  0  0  0  0  0  0  0
   -2.1840   -0.5686   -1.1407 N   0  0  0  0  0  0  0  0  0  0  0  0
   -1.7210   -1.1682   -2.0898 O   0  0  0  0  0  0  0  0  0  0  0  0
   -3.3824   -0.4558   -0.9442 O   0  0  0  0  0  0  0  0  0  0  0  0
    1.4873    1.3155   -2.9144 F   0  0  0  0  0 15  0  0  0  0  0  0
    0.9496    2.5832    1.6221 H   0  0  0  0  0  0  0  0  0  0  0  0
   -1.5208    3.0246    1.5508 H   0  0  0  0  0  0  0  0  0  0  0  0
   -2.9022    1.4864    0.1581 H   0  0  0  0  0  0  0  0  0  0  0  0
    2.6166   -2.4585    0.1489 C   0  0  0  0  0  0  0  0  0  0  0  0
    2.5994   -3.3040   -0.5518 H   0  0  0  0  0  0  0  0  0  0  0  0
    2.7815   -2.8633    1.1533 H   0  0  0  0  0  0  0  0  0  0  0  0
    3.4568   -1.8087   -0.1170 H   0  0  0  0  0  0  0  0  0  0  0  0
    0.7901   -1.8708    0.0684 S   0  0  0  0  0  0  0  0  0  0  0  0
  1  2  1  0  0  0  0
  2  3  2  0  0  0  0
  3 11  1  0  0  0  0
  4  3  1  0  0  0  0
  4 12  1  0  0  0  0
  5  4  2  0  0  0  0
  6  1  2  0  0  0  0
  6  5  1  0  0  0  0
  7  9  2  0  0  0  0
  7  6  1  0  0  0  0
  8  7  2  0  0  0  0
 13  5  1  0  0  0  0
 14 16  1  0  0  0  0
 15 14  1  0  0  0  0
 17 14  1  0  0  0  0
 18  1  1  0  0  0  0
 18 14  1  0  0  0  0
M  END
$$$$
Coordinates from ORCA-job TS_search_opt_without_h_MEP E -990.305439847512
 OpenBabel09152311013D

 18 17  0  0  0  0  0  0  0  0999 V2000
    0.1552   -0.1859    0.7014 C   0  0  0  0  0  0  0  0  0  0  0  0
    0.7643    0.8906    1.1968 N   0  0  0  0  0  0  0  0  0  0  0  0
    0.1673    2.0810    1.1106 C   0  0  0  0  0  0  0  0  0  0  0  0
   -1.0754    2.2770    0.5289 C   0  0  0  0  0  0  0  0  0  0  0  0
   -1.7315    1.1742    0.0170 C   0  0  0  0  0  0  0  0  0  0  0  0
   -1.1020   -0.0580    0.1017 C   0  0  0  0  0  0  0  0  0  0  0  0
   -1.8391   -1.1903   -0.4755 N   0  0  0  0  0  0  0  0  0  0  0  0
   -1.2436   -2.0010   -1.1506 O   0  0  0  0  0  0  0  0  0  0  0  0
   -3.0355   -1.2361   -0.2553 O   0  0  0  0  0  0  0  0  0  0  0  0
    3.9239    0.7522   -0.6242 F   0  0  0  0  0 15  0  0  0  0  0  0
    0.7192    2.9189    1.5252 H   0  0  0  0  0  0  0  0  0  0  0  0
   -1.5154    3.2653    0.4804 H   0  0  0  0  0  0  0  0  0  0  0  0
   -2.7072    1.2545   -0.4486 H   0  0  0  0  0  0  0  0  0  0  0  0
    1.7534   -1.9984   -0.6858 C   0  0  0  0  0  0  0  0  0  0  0  0
    0.9933   -2.1160   -1.4533 H   0  0  0  0  0  0  0  0  0  0  0  0
    2.3320   -2.9203   -0.5995 H   0  0  0  0  0  0  0  0  0  0  0  0
    2.4315   -1.1724   -0.9165 H   0  0  0  0  0  0  0  0  0  0  0  0
    1.0094   -1.7353    0.9474 S   0  0  0  0  0  0  0  0  0  0  0  0
  1 18  1  0  0  0  0
  1  2  1  0  0  0  0
  3  2  2  0  0  0  0
  3 11  1  0  0  0  0
  4  3  1  0  0  0  0
  5  6  1  0  0  0  0
  5  4  2  0  0  0  0
  6  1  2  0  0  0  0
  7  9  2  0  0  0  0
  7  6  1  0  0  0  0
  8  7  2  0  0  0  0
 12  4  1  0  0  0  0
 13  5  1  0  0  0  0
 14 16  1  0  0  0  0
 14 18  1  0  0  0  0
 15 14  1  0  0  0  0
 17 14  1  0  0  0  0
M  END
$$$$
