Coordinates from ORCA-job TS_search_opt_without_h_MEP E -990.267837700538
 OpenBabel09152311013D

 18 17  0  0  0  0  0  0  0  0999 V2000
   -0.2492   -2.2572   -1.0783 C   0  0  0  0  0  0  0  0  0  0  0  0
    0.8678   -2.4540   -0.4464 N   0  0  0  0  0  0  0  0  0  0  0  0
    0.9299   -2.4641    0.8848 C   0  0  0  0  0  0  0  0  0  0  0  0
   -0.1810   -2.2697    1.6753 C   0  0  0  0  0  0  0  0  0  0  0  0
   -1.3813   -2.0584    1.0283 C   0  0  0  0  0  0  0  0  0  0  0  0
   -1.4452   -2.0478   -0.3568 C   0  0  0  0  0  0  0  0  0  0  0  0
   -2.7019   -1.8257   -1.0249 N   0  0  0  0  0  0  0  0  0  0  0  0
   -2.7770   -1.8118   -2.2706 O   0  0  0  0  0  0  0  0  0  0  0  0
   -3.6776   -1.6544   -0.3207 O   0  0  0  0  0  0  0  0  0  0  0  0
   -0.2386   -2.2581   -2.4282 F   0  0  0  0  0  0  0  0  0  0  0  0
    1.9110   -2.6322    1.3149 H   0  0  0  0  0  0  0  0  0  0  0  0
   -0.1178   -2.2826    2.7554 H   0  0  0  0  0  0  0  0  0  0  0  0
   -2.2917   -1.8986    1.5915 H   0  0  0  0  0  0  0  0  0  0  0  0
    2.3126    5.7061   -0.2224 C   0  0  0  0  0  0  0  0  0  0  0  0
    3.3651    5.6582    0.0705 H   0  0  0  0  0  0  0  0  0  0  0  0
    1.7187    6.0325    0.6359 H   0  0  0  0  0  0  0  0  0  0  0  0
    2.2025    6.4339   -1.0312 H   0  0  0  0  0  0  0  0  0  0  0  0
    1.7537    4.0840   -0.7770 S   0  0  0  0  0  1  0  0  0  0  0  0
  1  2  2  0  0  0  0
  1  6  1  0  0  0  0
  2  3  1  0  0  0  0
  3 11  1  0  0  0  0
  3  4  2  0  0  0  0
  4 12  1  0  0  0  0
  5 13  1  0  0  0  0
  5  4  1  0  0  0  0
  6  5  2  0  0  0  0
  7  6  1  0  0  0  0
  7  9  2  0  0  0  0
  8  7  2  0  0  0  0
 10  1  1  0  0  0  0
 14 15  1  0  0  0  0
 14 16  1  0  0  0  0
 17 14  1  0  0  0  0
 18 14  1  0  0  0  0
M  END
$$$$
Coordinates from ORCA-job TS_search_opt_without_h_MEP E -990.257715599717
 OpenBabel09152311013D

 18 17  0  0  0  0  0  0  0  0999 V2000
    0.1883   -1.4121   -0.8598 C   0  0  0  0  0  0  0  0  0  0  0  0
    1.1419   -2.1099   -0.3160 N   0  0  0  0  0  0  0  0  0  0  0  0
    1.0214   -2.6288    0.8976 C   0  0  0  0  0  0  0  0  0  0  0  0
   -0.1291   -2.4715    1.6461 C   0  0  0  0  0  0  0  0  0  0  0  0
   -1.2123   -1.8734    1.0305 C   0  0  0  0  0  0  0  0  0  0  0  0
   -1.0998   -1.3493   -0.2638 C   0  0  0  0  0  0  0  0  0  0  0  0
   -2.3498   -0.7955   -0.8288 N   0  0  0  0  0  0  0  0  0  0  0  0
   -2.2825   -0.1283   -1.8403 O   0  0  0  0  0  0  0  0  0  0  0  0
   -3.3937   -1.0431   -0.2537 O   0  0  0  0  0  0  0  0  0  0  0  0
    0.7133   -0.7637   -1.9508 F   0  0  0  0  0  0  0  0  0  0  0  0
    1.9103   -3.1229    1.2616 H   0  0  0  0  0  0  0  0  0  0  0  0
   -0.1696   -2.8212    2.6692 H   0  0  0  0  0  0  0  0  0  0  0  0
   -2.1537   -1.7888    1.5663 H   0  0  0  0  0  0  0  0  0  0  0  0
    1.6188    4.5514   -0.4877 C   0  0  0  0  0  0  0  0  0  0  0  0
    1.9896    4.1852    0.4747 H   0  0  0  0  0  0  0  0  0  0  0  0
    0.9389    5.3826   -0.2790 H   0  0  0  0  0  0  0  0  0  0  0  0
    2.4767    4.9620   -1.0292 H   0  0  0  0  0  0  0  0  0  0  0  0
    0.7912    3.2274   -1.4367 S   0  0  0  0  0  1  0  0  0  0  0  0
  1  2  2  0  0  0  0
  1  6  1  0  0  0  0
  2  3  1  0  0  0  0
  3 11  1  0  0  0  0
  3  4  2  0  0  0  0
  4 12  1  0  0  0  0
  5 13  1  0  0  0  0
  5  4  1  0  0  0  0
  6  5  2  0  0  0  0
  7  6  1  0  0  0  0
  7  9  2  0  0  0  0
  8  7  2  0  0  0  0
 10  1  1  0  0  0  0
 14 16  1  0  0  0  0
 14 15  1  0  0  0  0
 17 14  1  0  0  0  0
 18 14  1  0  0  0  0
M  END
$$$$
Coordinates from ORCA-job TS_search_opt_without_h_MEP E -990.134496082419
 OpenBabel09152311013D

 18 16  0  0  0  0  0  0  0  0999 V2000
    0.0431   -1.4885   -0.8245 C   0  0  0  0  0  3  0  0  0  0  0  0
    0.9607   -2.1187   -0.3495 N   0  0  0  0  0  0  0  0  0  0  0  0
    1.0165   -2.6261    0.8793 C   0  0  0  0  0  0  0  0  0  0  0  0
   -0.1211   -2.4705    1.6399 C   0  0  0  0  0  0  0  0  0  0  0  0
   -1.2467   -1.8790    1.0651 C   0  0  0  0  0  0  0  0  0  0  0  0
   -1.2292   -1.3621   -0.2367 C   0  0  0  0  0  0  0  0  0  0  0  0
   -2.4645   -0.7852   -0.7925 N   0  0  0  0  0  0  0  0  0  0  0  0
   -2.3687   -0.1164   -1.7967 O   0  0  0  0  0  0  0  0  0  0  0  0
   -3.5016   -1.0205   -0.2084 O   0  0  0  0  0  0  0  0  0  0  0  0
    1.5073   -0.6961   -2.0874 F   0  0  0  0  0 15  0  0  0  0  0  0
    1.9505   -3.0723    1.1858 H   0  0  0  0  0  0  0  0  0  0  0  0
   -0.1245   -2.8179    2.6618 H   0  0  0  0  0  0  0  0  0  0  0  0
   -2.1621   -1.7970    1.6499 H   0  0  0  0  0  0  0  0  0  0  0  0
    1.6055    4.5390   -0.4915 C   0  0  0  0  0  0  0  0  0  0  0  0
    1.9533    4.1685    0.4775 H   0  0  0  0  0  0  0  0  0  0  0  0
    0.9377    5.3831   -0.2988 H   0  0  0  0  0  0  0  0  0  0  0  0
    2.4801    4.9281   -1.0226 H   0  0  0  0  0  0  0  0  0  0  0  0
    0.7636    3.2316   -1.4508 S   0  0  0  0  0  1  0  0  0  0  0  0
  1  2  2  0  0  0  0
  1  6  1  0  0  0  0
  2  3  1  0  0  0  0
  3 11  1  0  0  0  0
  3  4  2  0  0  0  0
  4 12  1  0  0  0  0
  5  4  1  0  0  0  0
  5 13  1  0  0  0  0
  6  5  2  0  0  0  0
  7  6  1  0  0  0  0
  7  9  2  0  0  0  0
  8  7  2  0  0  0  0
 14 16  1  0  0  0  0
 14 15  1  0  0  0  0
 17 14  1  0  0  0  0
 18 14  1  0  0  0  0
M  END
$$$$
Coordinates from ORCA-job TS_search_opt_without_h_MEP E -990.114381932887
 OpenBabel09152311013D

 18 16  0  0  0  0  0  0  0  0999 V2000
   -0.1533   -1.5560   -0.7870 C   0  0  0  0  0  3  0  0  0  0  0  0
    0.8457   -2.0658   -0.4235 N   0  0  0  0  0  0  0  0  0  0  0  0
    1.0267   -2.5673    0.8226 C   0  0  0  0  0  0  0  0  0  0  0  0
   -0.1055   -2.4601    1.6100 C   0  0  0  0  0  0  0  0  0  0  0  0
   -1.2886   -1.8911    1.1104 C   0  0  0  0  0  0  0  0  0  0  0  0
   -1.3728   -1.3966   -0.1873 C   0  0  0  0  0  0  0  0  0  0  0  0
   -2.5629   -0.7880   -0.7598 N   0  0  0  0  0  0  0  0  0  0  0  0
   -2.4148   -0.1236   -1.7602 O   0  0  0  0  0  0  0  0  0  0  0  0
   -3.6078   -0.9976   -0.1892 O   0  0  0  0  0  0  0  0  0  0  0  0
    2.1832   -0.7055   -2.0989 F   0  0  0  0  0 15  0  0  0  0  0  0
    1.9747   -2.9992    1.1047 H   0  0  0  0  0  0  0  0  0  0  0  0
   -0.0721   -2.8278    2.6301 H   0  0  0  0  0  0  0  0  0  0  0  0
   -2.1727   -1.8117    1.7352 H   0  0  0  0  0  0  0  0  0  0  0  0
    1.6010    4.5268   -0.4959 C   0  0  0  0  0  0  0  0  0  0  0  0
    1.9407    4.1614    0.4772 H   0  0  0  0  0  0  0  0  0  0  0  0
    0.9353    5.3759   -0.3114 H   0  0  0  0  0  0  0  0  0  0  0  0
    2.4806    4.9118   -1.0224 H   0  0  0  0  0  0  0  0  0  0  0  0
    0.7625    3.2144   -1.4547 S   0  0  0  0  0  1  0  0  0  0  0  0
  1  2  2  0  0  0  0
  1  6  1  0  0  0  0
  2  3  1  0  0  0  0
  3 11  1  0  0  0  0
  3  4  2  0  0  0  0
  4 12  1  0  0  0  0
  5  4  1  0  0  0  0
  5 13  1  0  0  0  0
  6  5  2  0  0  0  0
  7  9  2  0  0  0  0
  7  6  1  0  0  0  0
  8  7  2  0  0  0  0
 14 16  1  0  0  0  0
 14 15  1  0  0  0  0
 17 14  1  0  0  0  0
 18 14  1  0  0  0  0
M  END
$$$$
Coordinates from ORCA-job TS_search_opt_without_h_MEP E -990.114752820719
 OpenBabel09152311013D

 18 16  0  0  0  0  0  0  0  0999 V2000
   -0.2039   -1.4213   -0.7950 C   0  0  0  0  0  3  0  0  0  0  0  0
    0.8104   -1.9381   -0.4991 N   0  0  0  0  0  0  0  0  0  0  0  0
    1.0322   -2.5243    0.7068 C   0  0  0  0  0  0  0  0  0  0  0  0
   -0.0780   -2.4738    1.5311 C   0  0  0  0  0  0  0  0  0  0  0  0
   -1.2775   -1.8745    1.1089 C   0  0  0  0  0  0  0  0  0  0  0  0
   -1.4055   -1.3062   -0.1531 C   0  0  0  0  0  0  0  0  0  0  0  0
   -2.6011   -0.6555   -0.6610 N   0  0  0  0  0  0  0  0  0  0  0  0
   -2.4594    0.0888   -1.6047 O   0  0  0  0  0  0  0  0  0  0  0  0
   -3.6414   -0.9155   -0.1038 O   0  0  0  0  0  0  0  0  0  0  0  0
    2.7747   -0.7163   -1.6697 F   0  0  0  0  0 15  0  0  0  0  0  0
    1.9840   -2.9825    0.9311 H   0  0  0  0  0  0  0  0  0  0  0  0
   -0.0163   -2.9108    2.5219 H   0  0  0  0  0  0  0  0  0  0  0  0
   -2.1388   -1.8268    1.7682 H   0  0  0  0  0  0  0  0  0  0  0  0
    1.5019    4.3757   -0.5472 C   0  0  0  0  0  0  0  0  0  0  0  0
    1.6238    4.0427    0.4867 H   0  0  0  0  0  0  0  0  0  0  0  0
    0.9451    5.3185   -0.5205 H   0  0  0  0  0  0  0  0  0  0  0  0
    2.5006    4.6018   -0.9344 H   0  0  0  0  0  0  0  0  0  0  0  0
    0.6492    3.1184   -1.5661 S   0  0  0  0  0  1  0  0  0  0  0  0
  1  2  2  0  0  0  0
  1  6  1  0  0  0  0
  2  3  1  0  0  0  0
  3 11  1  0  0  0  0
  3  4  2  0  0  0  0
  4 12  1  0  0  0  0
  5  4  1  0  0  0  0
  5 13  1  0  0  0  0
  6  5  2  0  0  0  0
  7  6  1  0  0  0  0
  7  9  2  0  0  0  0
  8  7  2  0  0  0  0
 14 16  1  0  0  0  0
 14 15  1  0  0  0  0
 17 14  1  0  0  0  0
 18 14  1  0  0  0  0
M  END
$$$$
Coordinates from ORCA-job TS_search_opt_without_h_MEP E -990.115188313939
 OpenBabel09152311013D

 18 16  0  0  0  0  0  0  0  0999 V2000
   -0.1994   -1.2670   -0.7719 C   0  0  0  0  0  3  0  0  0  0  0  0
    0.8158   -1.8257   -0.5510 N   0  0  0  0  0  0  0  0  0  0  0  0
    1.0344   -2.5123    0.6060 C   0  0  0  0  0  0  0  0  0  0  0  0
   -0.0556   -2.4944    1.4552 C   0  0  0  0  0  0  0  0  0  0  0  0
   -1.2504   -1.8404    1.1003 C   0  0  0  0  0  0  0  0  0  0  0  0
   -1.3906   -1.1770   -0.1122 C   0  0  0  0  0  0  0  0  0  0  0  0
   -2.5961   -0.4977   -0.5576 N   0  0  0  0  0  0  0  0  0  0  0  0
   -2.4680    0.3349   -1.4257 O   0  0  0  0  0  0  0  0  0  0  0  0
   -3.6312   -0.8287   -0.0291 O   0  0  0  0  0  0  0  0  0  0  0  0
    3.1660   -0.4943   -1.2707 F   0  0  0  0  0 15  0  0  0  0  0  0
    1.9736   -3.0189    0.7700 H   0  0  0  0  0  0  0  0  0  0  0  0
    0.0098   -3.0087    2.4082 H   0  0  0  0  0  0  0  0  0  0  0  0
   -2.1032   -1.8313    1.7746 H   0  0  0  0  0  0  0  0  0  0  0  0
    1.3942    4.1770   -0.6062 C   0  0  0  0  0  0  0  0  0  0  0  0
    1.2482    3.9505    0.4537 H   0  0  0  0  0  0  0  0  0  0  0  0
    1.0005    5.1803   -0.7819 H   0  0  0  0  0  0  0  0  0  0  0  0
    2.4759    4.2161   -0.7839 H   0  0  0  0  0  0  0  0  0  0  0  0
    0.5761    2.9375   -1.6780 S   0  0  0  0  0  1  0  0  0  0  0  0
  1  2  2  0  0  0  0
  1  6  1  0  0  0  0
  2  3  1  0  0  0  0
  3 11  1  0  0  0  0
  3  4  2  0  0  0  0
  4 12  1  0  0  0  0
  5  4  1  0  0  0  0
  5 13  1  0  0  0  0
  6  5  2  0  0  0  0
  7  6  1  0  0  0  0
  7  9  2  0  0  0  0
  8  7  2  0  0  0  0
 14 15  1  0  0  0  0
 16 14  1  0  0  0  0
 17 14  1  0  0  0  0
 18 14  1  0  0  0  0
M  END
$$$$
Coordinates from ORCA-job TS_search_opt_without_h_MEP E -990.119404750702
 OpenBabel09152311013D

 18 16  0  0  0  0  0  0  0  0999 V2000
   -0.1461   -0.9566   -0.7094 C   0  0  0  0  0  3  0  0  0  0  0  0
    0.8516   -1.5861   -0.5435 N   0  0  0  0  0  0  0  0  0  0  0  0
    1.0326   -2.4283    0.5097 C   0  0  0  0  0  0  0  0  0  0  0  0
   -0.0482   -2.4884    1.3684 C   0  0  0  0  0  0  0  0  0  0  0  0
   -1.2354   -1.7973    1.0783 C   0  0  0  0  0  0  0  0  0  0  0  0
   -1.3532   -1.0058   -0.0554 C   0  0  0  0  0  0  0  0  0  0  0  0
   -2.5892   -0.3566   -0.4613 N   0  0  0  0  0  0  0  0  0  0  0  0
   -2.5126    0.5344   -1.2745 O   0  0  0  0  0  0  0  0  0  0  0  0
   -3.6083   -0.7806    0.0359 O   0  0  0  0  0  0  0  0  0  0  0  0
    3.4963   -0.3613   -0.9451 F   0  0  0  0  0 15  0  0  0  0  0  0
    1.9526   -2.9859    0.6076 H   0  0  0  0  0  0  0  0  0  0  0  0
    0.0152   -3.0977    2.2640 H   0  0  0  0  0  0  0  0  0  0  0  0
   -2.0950   -1.8657    1.7379 H   0  0  0  0  0  0  0  0  0  0  0  0
    1.3013    3.9219   -0.6503 C   0  0  0  0  0  0  0  0  0  0  0  0
    1.0096    3.8235    0.3989 H   0  0  0  0  0  0  0  0  0  0  0  0
    0.9676    4.9092   -0.9836 H   0  0  0  0  0  0  0  0  0  0  0  0
    2.3972    3.9227   -0.6913 H   0  0  0  0  0  0  0  0  0  0  0  0
    0.5641    2.5989   -1.6863 S   0  0  0  0  0  1  0  0  0  0  0  0
  1  2  2  0  0  0  0
  1  6  1  0  0  0  0
  2  3  1  0  0  0  0
  3 11  1  0  0  0  0
  3  4  2  0  0  0  0
  4 12  1  0  0  0  0
  5  4  1  0  0  0  0
  5 13  1  0  0  0  0
  6  5  2  0  0  0  0
  7  6  1  0  0  0  0
  7  9  2  0  0  0  0
  8  7  2  0  0  0  0
 14 15  1  0  0  0  0
 16 14  1  0  0  0  0
 17 14  1  0  0  0  0
 18 14  1  0  0  0  0
M  END
$$$$
Coordinates from ORCA-job TS_search_opt_without_h_MEP E -990.147095065757
 OpenBabel09152311013D

 18 16  0  0  0  0  0  0  0  0999 V2000
   -0.0494   -0.5597   -0.6101 C   0  0  0  0  0  3  0  0  0  0  0  0
    0.9323   -1.3189   -0.4947 N   0  0  0  0  0  0  0  0  0  0  0  0
    1.0071   -2.3096    0.4221 C   0  0  0  0  0  0  0  0  0  0  0  0
   -0.0560   -2.4609    1.2940 C   0  0  0  0  0  0  0  0  0  0  0  0
   -1.2245   -1.7447    1.0464 C   0  0  0  0  0  0  0  0  0  0  0  0
   -1.2734   -0.8237    0.0055 C   0  0  0  0  0  0  0  0  0  0  0  0
   -2.5442   -0.2313   -0.3880 N   0  0  0  0  0  0  0  0  0  0  0  0
   -2.5267    0.7047   -1.1543 O   0  0  0  0  0  0  0  0  0  0  0  0
   -3.5553   -0.7477    0.0479 O   0  0  0  0  0  0  0  0  0  0  0  0
    3.7349   -0.2186   -0.7587 F   0  0  0  0  0 15  0  0  0  0  0  0
    1.8993   -2.9256    0.4660 H   0  0  0  0  0  0  0  0  0  0  0  0
    0.0082   -3.1410    2.1370 H   0  0  0  0  0  0  0  0  0  0  0  0
   -2.1032   -1.8836    1.6665 H   0  0  0  0  0  0  0  0  0  0  0  0
    1.2134    3.6148   -0.6578 C   0  0  0  0  0  0  0  0  0  0  0  0
    0.8513    3.6741    0.3697 H   0  0  0  0  0  0  0  0  0  0  0  0
    0.8934    4.5493   -1.1440 H   0  0  0  0  0  0  0  0  0  0  0  0
    2.3084    3.6319   -0.6470 H   0  0  0  0  0  0  0  0  0  0  0  0
    0.4843    2.1904   -1.6004 S   0  0  0  0  0  1  0  0  0  0  0  0
  1  2  2  0  0  0  0
  1  6  1  0  0  0  0
  2  3  1  0  0  0  0
  3 11  1  0  0  0  0
  3  4  2  0  0  0  0
  4 12  1  0  0  0  0
  5  4  1  0  0  0  0
  5 13  1  0  0  0  0
  6  5  2  0  0  0  0
  7  6  1  0  0  0  0
  7  9  2  0  0  0  0
  8  7  2  0  0  0  0
 14 17  1  0  0  0  0
 14 15  1  0  0  0  0
 16 14  1  0  0  0  0
 18 14  1  0  0  0  0
M  END
$$$$
Coordinates from ORCA-job TS_search_opt_without_h_MEP E -990.230506038348
 OpenBabel09152311013D

 18 17  0  0  0  0  0  0  0  0999 V2000
    0.0442   -0.1670   -0.5164 C   0  0  0  0  0  0  0  0  0  0  0  0
    1.0248   -1.0454   -0.4631 N   0  0  0  0  0  0  0  0  0  0  0  0
    0.9994   -2.1351    0.3294 C   0  0  0  0  0  0  0  0  0  0  0  0
   -0.0451   -2.3767    1.2075 C   0  0  0  0  0  0  0  0  0  0  0  0
   -1.1913   -1.6328    0.9963 C   0  0  0  0  0  0  0  0  0  0  0  0
   -1.1821   -0.5983    0.0584 C   0  0  0  0  0  0  0  0  0  0  0  0
   -2.5044   -0.0800   -0.3192 N   0  0  0  0  0  0  0  0  0  0  0  0
   -2.5652    0.9131   -1.0090 O   0  0  0  0  0  0  0  0  0  0  0  0
   -3.4838   -0.7145    0.0350 O   0  0  0  0  0  0  0  0  0  0  0  0
    3.9821   -0.0798   -0.5716 F   0  0  0  0  0 15  0  0  0  0  0  0
    1.8548   -2.8115    0.3052 H   0  0  0  0  0  0  0  0  0  0  0  0
    0.0116   -3.1309    1.9898 H   0  0  0  0  0  0  0  0  0  0  0  0
   -2.0920   -1.8428    1.5656 H   0  0  0  0  0  0  0  0  0  0  0  0
    1.0935    3.2405   -0.6276 C   0  0  0  0  0  0  0  0  0  0  0  0
    0.6793    3.4670    0.3536 H   0  0  0  0  0  0  0  0  0  0  0  0
    0.7904    4.0762   -1.2837 H   0  0  0  0  0  0  0  0  0  0  0  0
    2.1882    3.2823   -0.5844 H   0  0  0  0  0  0  0  0  0  0  0  0
    0.3957    1.6356   -1.4660 S   0  0  0  0  0  0  0  0  0  0  0  0
  1  2  2  0  0  0  0
  1  6  1  0  0  0  0
  2  3  1  0  0  0  0
  3  4  2  0  0  0  0
  4 12  1  0  0  0  0
  5  4  1  0  0  0  0
  5 13  1  0  0  0  0
  6  5  2  0  0  0  0
  7  9  2  0  0  0  0
  7  6  1  0  0  0  0
  8  7  2  0  0  0  0
 11  3  1  0  0  0  0
 14 17  1  0  0  0  0
 14 15  1  0  0  0  0
 16 14  1  0  0  0  0
 18 14  1  0  0  0  0
 18  1  1  0  0  0  0
M  END
$$$$
Coordinates from ORCA-job TS_search_opt_without_h_MEP E -990.305472055610
 OpenBabel09152311013D

 18 17  0  0  0  0  0  0  0  0999 V2000
    0.1279   -0.1989   -0.7032 C   0  0  0  0  0  0  0  0  0  0  0  0
    1.1510   -1.0484   -0.6208 N   0  0  0  0  0  0  0  0  0  0  0  0
    1.0661   -2.1016    0.1941 C   0  0  0  0  0  0  0  0  0  0  0  0
   -0.0431   -2.3798    0.9771 C   0  0  0  0  0  0  0  0  0  0  0  0
   -1.1210   -1.5190    0.9014 C   0  0  0  0  0  0  0  0  0  0  0  0
   -1.0229   -0.4220    0.0598 C   0  0  0  0  0  0  0  0  0  0  0  0
   -2.1920    0.4673    0.0345 N   0  0  0  0  0  0  0  0  0  0  0  0
   -2.0230    1.6667    0.0535 O   0  0  0  0  0  0  0  0  0  0  0  0
   -3.2866   -0.0652    0.0185 O   0  0  0  0  0  0  0  0  0  0  0  0
    3.8351    1.2460    0.3003 F   0  0  0  0  0 15  0  0  0  0  0  0
    1.9360   -2.7503    0.2221 H   0  0  0  0  0  0  0  0  0  0  0  0
   -0.0608   -3.2467    1.6259 H   0  0  0  0  0  0  0  0  0  0  0  0
   -2.0216   -1.6780    1.4834 H   0  0  0  0  0  0  0  0  0  0  0  0
    0.7602    2.5126   -0.8039 C   0  0  0  0  0  0  0  0  0  0  0  0
   -0.0464    2.7495   -0.1156 H   0  0  0  0  0  0  0  0  0  0  0  0
    0.9340    3.3604   -1.4695 H   0  0  0  0  0  0  0  0  0  0  0  0
    1.6867    2.2820   -0.2714 H   0  0  0  0  0  0  0  0  0  0  0  0
    0.3203    1.1254   -1.8862 S   0  0  0  0  0  0  0  0  0  0  0  0
  1  2  2  0  0  0  0
  1  6  1  0  0  0  0
  2  3  1  0  0  0  0
  3 11  1  0  0  0  0
  3  4  2  0  0  0  0
  4 12  1  0  0  0  0
  5  4  1  0  0  0  0
  5 13  1  0  0  0  0
  6  5  2  0  0  0  0
  7  8  2  0  0  0  0
  7  6  1  0  0  0  0
  9  7  2  0  0  0  0
 14 17  1  0  0  0  0
 14 15  1  0  0  0  0
 16 14  1  0  0  0  0
 18 14  1  0  0  0  0
 18  1  1  0  0  0  0
M  END
$$$$
