Coordinates from ORCA-job TS_search_opt_without_h_MEP E -990.267831406047
 OpenBabel09152311013D

 18 17  0  0  0  0  0  0  0  0999 V2000
   -0.2482    2.0795   -1.0809 C   0  0  0  0  0  0  0  0  0  0  0  0
    0.8731    1.9094   -0.4488 N   0  0  0  0  0  0  0  0  0  0  0  0
    0.9385    1.9201    0.8823 C   0  0  0  0  0  0  0  0  0  0  0  0
   -0.1738    2.1092    1.6722 C   0  0  0  0  0  0  0  0  0  0  0  0
   -1.3785    2.2922    1.0251 C   0  0  0  0  0  0  0  0  0  0  0  0
   -1.4456    2.2812   -0.3597 C   0  0  0  0  0  0  0  0  0  0  0  0
   -2.7071    2.4739   -1.0280 N   0  0  0  0  0  0  0  0  0  0  0  0
   -2.7851    2.4681   -2.2736 O   0  0  0  0  0  0  0  0  0  0  0  0
   -3.6838    2.6406   -0.3241 O   0  0  0  0  0  0  0  0  0  0  0  0
   -0.2404    2.0586   -2.4307 F   0  0  0  0  0  0  0  0  0  0  0  0
    1.9230    1.7728    1.3127 H   0  0  0  0  0  0  0  0  0  0  0  0
   -0.1083    2.1168    2.7522 H   0  0  0  0  0  0  0  0  0  0  0  0
   -2.2903    2.4463    1.5879 H   0  0  0  0  0  0  0  0  0  0  0  0
    2.3072   -5.8373   -0.2152 C   0  0  0  0  0  0  0  0  0  0  0  0
    2.6394   -6.4316   -1.0709 H   0  0  0  0  0  0  0  0  0  0  0  0
    1.4900   -6.3607    0.2888 H   0  0  0  0  0  0  0  0  0  0  0  0
    3.1413   -5.7232    0.4827 H   0  0  0  0  0  0  0  0  0  0  0  0
    1.7486   -4.2158   -0.7720 S   0  0  0  0  0  1  0  0  0  0  0  0
  1  2  2  0  0  0  0
  1  6  1  0  0  0  0
  2  3  1  0  0  0  0
  3 11  1  0  0  0  0
  3  4  2  0  0  0  0
  4 12  1  0  0  0  0
  5 13  1  0  0  0  0
  5  4  1  0  0  0  0
  6  5  2  0  0  0  0
  7  6  1  0  0  0  0
  7  9  2  0  0  0  0
  8  7  2  0  0  0  0
 10  1  1  0  0  0  0
 14 16  1  0  0  0  0
 14 17  1  0  0  0  0
 15 14  1  0  0  0  0
 18 14  1  0  0  0  0
M  END
$$$$
Coordinates from ORCA-job TS_search_opt_without_h_MEP E -990.274156415633
 OpenBabel09152311013D

 18 17  0  0  0  0  0  0  0  0999 V2000
    0.1022    1.2074   -0.7655 C   0  0  0  0  0  0  0  0  0  0  0  0
    1.2010    1.3409   -0.0751 N   0  0  0  0  0  0  0  0  0  0  0  0
    1.1160    1.9080    1.1347 C   0  0  0  0  0  0  0  0  0  0  0  0
   -0.0737    2.3574    1.6813 C   0  0  0  0  0  0  0  0  0  0  0  0
   -1.2337    2.2038    0.9429 C   0  0  0  0  0  0  0  0  0  0  0  0
   -1.1524    1.6147   -0.3091 C   0  0  0  0  0  0  0  0  0  0  0  0
   -2.3780    1.4396   -1.0870 N   0  0  0  0  0  0  0  0  0  0  0  0
   -2.2924    1.0579   -2.2366 O   0  0  0  0  0  0  0  0  0  0  0  0
   -3.4314    1.6912   -0.5333 O   0  0  0  0  0  0  0  0  0  0  0  0
    0.2481    0.6367   -1.9596 F   0  0  0  0  0  0  0  0  0  0  0  0
    2.0486    2.0008    1.6796 H   0  0  0  0  0  0  0  0  0  0  0  0
   -0.0925    2.8148    2.6611 H   0  0  0  0  0  0  0  0  0  0  0  0
   -2.1949    2.5340    1.3153 H   0  0  0  0  0  0  0  0  0  0  0  0
    1.6858   -4.6676   -0.5145 C   0  0  0  0  0  0  0  0  0  0  0  0
    1.6910   -4.8838   -1.5876 H   0  0  0  0  0  0  0  0  0  0  0  0
    1.2138   -5.5196   -0.0146 H   0  0  0  0  0  0  0  0  0  0  0  0
    2.7292   -4.6349   -0.1852 H   0  0  0  0  0  0  0  0  0  0  0  0
    0.8134   -3.1012   -0.1470 S   0  0  0  0  0  1  0  0  0  0  0  0
  1  6  2  0  0  0  0
  1  2  1  0  0  0  0
  2  3  2  0  0  0  0
  3 11  1  0  0  0  0
  3  4  1  0  0  0  0
  4 12  1  0  0  0  0
  5 13  1  0  0  0  0
  5  4  2  0  0  0  0
  6  5  1  0  0  0  0
  7  9  2  0  0  0  0
  7  6  1  0  0  0  0
  8  7  2  0  0  0  0
 10  1  1  0  0  0  0
 14 17  1  0  0  0  0
 14 18  1  0  0  0  0
 14 16  1  0  0  0  0
 15 14  1  0  0  0  0
M  END
$$$$
Coordinates from ORCA-job TS_search_opt_without_h_MEP E -990.269903893360
 OpenBabel09152311013D

 18 17  0  0  0  0  0  0  0  0999 V2000
    0.4432    0.5013   -0.5304 C   0  0  0  0  0  0  0  0  0  0  0  0
    1.4711    0.8208    0.2124 N   0  0  0  0  0  0  0  0  0  0  0  0
    1.2777    1.6392    1.2468 C   0  0  0  0  0  0  0  0  0  0  0  0
    0.0559    2.2249    1.5408 C   0  0  0  0  0  0  0  0  0  0  0  0
   -1.0345    1.8614    0.7694 C   0  0  0  0  0  0  0  0  0  0  0  0
   -0.8580    0.9646   -0.2670 C   0  0  0  0  0  0  0  0  0  0  0  0
   -2.0215    0.5292   -1.0294 N   0  0  0  0  0  0  0  0  0  0  0  0
   -1.8685   -0.1385   -2.0187 O   0  0  0  0  0  0  0  0  0  0  0  0
   -3.1244    0.8692   -0.5946 O   0  0  0  0  0  0  0  0  0  0  0  0
    0.7398   -0.1053   -1.6765 F   0  0  0  0  0  0  0  0  0  0  0  0
    2.1511    1.8641    1.8435 H   0  0  0  0  0  0  0  0  0  0  0  0
   -0.0347    2.9582    2.3286 H   0  0  0  0  0  0  0  0  0  0  0  0
   -2.0213    2.2856    0.9433 H   0  0  0  0  0  0  0  0  0  0  0  0
    1.0410   -3.3184   -0.6260 C   0  0  0  0  0  0  0  0  0  0  0  0
    0.8081   -3.2854   -1.6976 H   0  0  0  0  0  0  0  0  0  0  0  0
    0.9400   -4.3579   -0.3043 H   0  0  0  0  0  0  0  0  0  0  0  0
    2.0986   -3.0476   -0.5176 H   0  0  0  0  0  0  0  0  0  0  0  0
   -0.0638   -2.2654    0.3775 S   0  0  0  0  0  1  0  0  0  0  0  0
  1  6  2  0  0  0  0
  1  2  1  0  0  0  0
  2  3  2  0  0  0  0
  3  4  1  0  0  0  0
  3 11  1  0  0  0  0
  4 12  1  0  0  0  0
  5 13  1  0  0  0  0
  5  4  2  0  0  0  0
  6  5  1  0  0  0  0
  7  9  2  0  0  0  0
  7  6  1  0  0  0  0
  8  7  2  0  0  0  0
 10  1  1  0  0  0  0
 14 17  1  0  0  0  0
 14 16  1  0  0  0  0
 14 18  1  0  0  0  0
 15 14  1  0  0  0  0
M  END
$$$$
Coordinates from ORCA-job TS_search_opt_without_h_MEP E -990.262677181081
 OpenBabel09152311013D

 18 17  0  0  0  0  0  0  0  0999 V2000
    0.4117    0.2905   -0.4422 C   0  0  0  0  0  0  0  0  0  0  0  0
    1.4647    0.7135    0.2708 N   0  0  0  0  0  0  0  0  0  0  0  0
    1.2751    1.5867    1.2455 C   0  0  0  0  0  0  0  0  0  0  0  0
    0.0511    2.1955    1.5354 C   0  0  0  0  0  0  0  0  0  0  0  0
   -1.0314    1.8330    0.7662 C   0  0  0  0  0  0  0  0  0  0  0  0
   -0.8682    0.8917   -0.2475 C   0  0  0  0  0  0  0  0  0  0  0  0
   -2.0161    0.5058   -1.0007 N   0  0  0  0  0  0  0  0  0  0  0  0
   -1.8770   -0.1823   -2.0019 O   0  0  0  0  0  0  0  0  0  0  0  0
   -3.1260    0.8742   -0.6138 O   0  0  0  0  0  0  0  0  0  0  0  0
    0.7683   -0.1021   -1.6931 F   0  0  0  0  0  0  0  0  0  0  0  0
    2.1591    1.8609    1.8153 H   0  0  0  0  0  0  0  0  0  0  0  0
   -0.0242    2.9599    2.2980 H   0  0  0  0  0  0  0  0  0  0  0  0
   -2.0031    2.2914    0.9067 H   0  0  0  0  0  0  0  0  0  0  0  0
    1.0384   -3.2151   -0.6410 C   0  0  0  0  0  0  0  0  0  0  0  0
    0.8036   -3.2343   -1.7097 H   0  0  0  0  0  0  0  0  0  0  0  0
    0.8677   -4.2250   -0.2539 H   0  0  0  0  0  0  0  0  0  0  0  0
    2.1066   -3.0051   -0.5305 H   0  0  0  0  0  0  0  0  0  0  0  0
   -0.0003   -2.0392    0.2962 S   0  0  0  0  0  1  0  0  0  0  0  0
  1  6  2  0  0  0  0
  1  2  1  0  0  0  0
  2  3  2  0  0  0  0
  3  4  1  0  0  0  0
  3 11  1  0  0  0  0
  4 12  1  0  0  0  0
  5 13  1  0  0  0  0
  5  4  2  0  0  0  0
  6  5  1  0  0  0  0
  7  9  2  0  0  0  0
  7  6  1  0  0  0  0
  8  7  2  0  0  0  0
 10  1  1  0  0  0  0
 14 17  1  0  0  0  0
 14 16  1  0  0  0  0
 14 18  1  0  0  0  0
 15 14  1  0  0  0  0
M  END
$$$$
Coordinates from ORCA-job TS_search_opt_without_h_MEP E -990.264854521910
 OpenBabel09152311013D

 18 17  0  0  0  0  0  0  0  0999 V2000
    0.3994    0.2050   -0.4123 C   0  0  0  0  0  0  0  0  0  0  0  0
    1.4693    0.6901    0.2873 N   0  0  0  0  0  0  0  0  0  0  0  0
    1.2762    1.5770    1.2392 C   0  0  0  0  0  0  0  0  0  0  0  0
    0.0467    2.1922    1.5355 C   0  0  0  0  0  0  0  0  0  0  0  0
   -1.0300    1.8293    0.7661 C   0  0  0  0  0  0  0  0  0  0  0  0
   -0.8765    0.8731   -0.2461 C   0  0  0  0  0  0  0  0  0  0  0  0
   -2.0141    0.5022   -0.9944 N   0  0  0  0  0  0  0  0  0  0  0  0
   -1.8761   -0.1887   -2.0030 O   0  0  0  0  0  0  0  0  0  0  0  0
   -3.1301    0.8819   -0.6124 O   0  0  0  0  0  0  0  0  0  0  0  0
    0.7770   -0.0928   -1.7031 F   0  0  0  0  0  0  0  0  0  0  0  0
    2.1588    1.8641    1.8057 H   0  0  0  0  0  0  0  0  0  0  0  0
   -0.0242    2.9609    2.2971 H   0  0  0  0  0  0  0  0  0  0  0  0
   -2.0010    2.2935    0.9020 H   0  0  0  0  0  0  0  0  0  0  0  0
    1.0397   -3.1924   -0.6452 C   0  0  0  0  0  0  0  0  0  0  0  0
    0.8033   -3.2301   -1.7113 H   0  0  0  0  0  0  0  0  0  0  0  0
    0.8522   -4.1968   -0.2417 H   0  0  0  0  0  0  0  0  0  0  0  0
    2.1092   -3.0020   -0.5307 H   0  0  0  0  0  0  0  0  0  0  0  0
    0.0199   -1.9665    0.2671 S   0  0  0  0  0  1  0  0  0  0  0  0
  1  6  2  0  0  0  0
  1  2  1  0  0  0  0
  2  3  2  0  0  0  0
  3  4  1  0  0  0  0
  3 11  1  0  0  0  0
  4 12  1  0  0  0  0
  5 13  1  0  0  0  0
  5  4  2  0  0  0  0
  6  5  1  0  0  0  0
  7  9  2  0  0  0  0
  7  6  1  0  0  0  0
  8  7  2  0  0  0  0
 10  1  1  0  0  0  0
 14 17  1  0  0  0  0
 14 16  1  0  0  0  0
 14 18  1  0  0  0  0
 15 14  1  0  0  0  0
M  END
$$$$
Coordinates from ORCA-job TS_search_opt_without_h_MEP E -990.274505564941
 OpenBabel09152311013D

 18 18  0  0  1  0  0  0  0  0999 V2000
    0.3869    0.0689   -0.3812 C   0  0  1  0  0  0  0  0  0  0  0  0
    1.4653    0.6324    0.3286 N   0  0  0  0  0  0  0  0  0  0  0  0
    1.2774    1.5536    1.2290 C   0  0  0  0  0  0  0  0  0  0  0  0
    0.0418    2.1805    1.5326 C   0  0  0  0  0  0  0  0  0  0  0  0
   -1.0250    1.8183    0.7678 C   0  0  0  0  0  0  0  0  0  0  0  0
   -0.8779    0.8247   -0.2291 C   0  0  2  0  0  3  0  0  0  0  0  0
   -2.0006    0.4950   -0.9765 N   0  0  0  0  0  0  0  0  0  0  0  0
   -1.8945   -0.2011   -1.9972 O   0  0  0  0  0  0  0  0  0  0  0  0
   -3.1334    0.8905   -0.6278 O   0  0  0  0  0  0  0  0  0  0  0  0
    0.7924   -0.0796   -1.7086 F   0  0  0  0  0  0  0  0  0  0  0  0
    2.1615    1.8686    1.7835 H   0  0  0  0  0  0  0  0  0  0  0  0
   -0.0220    2.9540    2.2817 H   0  0  0  0  0  0  0  0  0  0  0  0
   -1.9967    2.2956    0.8897 H   0  0  0  0  0  0  0  0  0  0  0  0
    1.0441   -3.1357   -0.6547 C   0  0  0  0  0  0  0  0  0  0  0  0
    0.8034   -3.2109   -1.7179 H   0  0  0  0  0  0  0  0  0  0  0  0
    0.8156   -4.1204   -0.2137 H   0  0  0  0  0  0  0  0  0  0  0  0
    2.1185   -2.9860   -0.5319 H   0  0  0  0  0  0  0  0  0  0  0  0
    0.0433   -1.8483    0.2257 S   0  0  0  0  0  0  0  0  0  0  0  0
  1 10  1  6  0  0  0
  1  6  1  0  0  0  0
  1 18  1  0  0  0  0
  1  2  1  0  0  0  0
  2  3  2  0  0  0  0
  3  4  1  0  0  0  0
  3 11  1  0  0  0  0
  4 12  1  0  0  0  0
  5 13  1  0  0  0  0
  5  4  2  0  0  0  0
  6  7  1  1  0  0  0
  6  5  1  0  0  0  0
  7  9  2  0  0  0  0
  8  7  2  0  0  0  0
 14 17  1  0  0  0  0
 14 16  1  0  0  0  0
 14 18  1  0  0  0  0
 15 14  1  0  0  0  0
M  END
$$$$
Coordinates from ORCA-job TS_search_opt_without_h_MEP E -990.291940071209
 OpenBabel09152311013D

 18 17  0  0  0  0  0  0  0  0999 V2000
    0.1302   -0.2305    0.1771 C   0  0  0  0  0  0  0  0  0  0  0  0
    1.2418    0.1944    0.7732 N   0  0  0  0  0  0  0  0  0  0  0  0
    1.2595    1.4216    1.3038 C   0  0  0  0  0  0  0  0  0  0  0  0
    0.1372    2.2361    1.3931 C   0  0  0  0  0  0  0  0  0  0  0  0
   -0.9901    1.8495    0.6956 C   0  0  0  0  0  0  0  0  0  0  0  0
   -0.9532    0.6458    0.0084 C   0  0  0  0  0  0  0  0  0  0  0  0
   -2.1033    0.3571   -0.8531 N   0  0  0  0  0  0  0  0  0  0  0  0
   -1.9339   -0.2630   -1.8870 O   0  0  0  0  0  0  0  0  0  0  0  0
   -3.1813    0.8135   -0.5180 O   0  0  0  0  0  0  0  0  0  0  0  0
    1.2304    0.1586   -2.3639 F   0  0  0  0  0 15  0  0  0  0  0  0
    2.2019    1.7535    1.7294 H   0  0  0  0  0  0  0  0  0  0  0  0
    0.1435    3.1430    1.9875 H   0  0  0  0  0  0  0  0  0  0  0  0
   -1.8878    2.4517    0.6746 H   0  0  0  0  0  0  0  0  0  0  0  0
    1.0621   -2.9530   -0.6982 C   0  0  0  0  0  0  0  0  0  0  0  0
    0.9447   -3.0056   -1.7801 H   0  0  0  0  0  0  0  0  0  0  0  0
    0.8715   -3.9450   -0.2792 H   0  0  0  0  0  0  0  0  0  0  0  0
    2.0749   -2.6596   -0.4265 H   0  0  0  0  0  0  0  0  0  0  0  0
   -0.2483   -1.9682    0.0634 S   0  0  0  0  0  0  0  0  0  0  0  0
  1  2  1  0  0  0  0
  2  3  2  0  0  0  0
  3  4  1  0  0  0  0
  3 11  1  0  0  0  0
  4 12  1  0  0  0  0
  5  4  2  0  0  0  0
  6  1  2  0  0  0  0
  6  5  1  0  0  0  0
  7  9  2  0  0  0  0
  7  6  1  0  0  0  0
  8  7  2  0  0  0  0
 13  5  1  0  0  0  0
 14 17  1  0  0  0  0
 14 16  1  0  0  0  0
 14 18  1  0  0  0  0
 15 14  1  0  0  0  0
 18  1  1  0  0  0  0
M  END
$$$$
Coordinates from ORCA-job TS_search_opt_without_h_MEP E -990.303032551603
 OpenBabel09152311013D

 18 17  0  0  0  0  0  0  0  0999 V2000
   -0.1036   -0.4721    0.4105 C   0  0  0  0  0  0  0  0  0  0  0  0
    1.0401   -0.1345    0.9964 N   0  0  0  0  0  0  0  0  0  0  0  0
    1.2399    1.1431    1.3336 C   0  0  0  0  0  0  0  0  0  0  0  0
    0.2770    2.1370    1.2064 C   0  0  0  0  0  0  0  0  0  0  0  0
   -0.9142    1.8087    0.5826 C   0  0  0  0  0  0  0  0  0  0  0  0
   -1.0534    0.5096    0.1263 C   0  0  0  0  0  0  0  0  0  0  0  0
   -2.1926    0.2337   -0.7547 N   0  0  0  0  0  0  0  0  0  0  0  0
   -1.9441   -0.1780   -1.8691 O   0  0  0  0  0  0  0  0  0  0  0  0
   -3.3106    0.4836   -0.3527 O   0  0  0  0  0  0  0  0  0  0  0  0
    1.5368    1.7130   -3.2730 F   0  0  0  0  0 15  0  0  0  0  0  0
    2.2187    1.3817    1.7412 H   0  0  0  0  0  0  0  0  0  0  0  0
    0.4679    3.1471    1.5528 H   0  0  0  0  0  0  0  0  0  0  0  0
   -1.6939    2.5441    0.4084 H   0  0  0  0  0  0  0  0  0  0  0  0
    1.0124   -2.9092   -0.4822 C   0  0  0  0  0  0  0  0  0  0  0  0
    1.0349   -2.8505   -1.5706 H   0  0  0  0  0  0  0  0  0  0  0  0
    1.0096   -3.9576   -0.1774 H   0  0  0  0  0  0  0  0  0  0  0  0
    1.8836   -2.4187   -0.0510 H   0  0  0  0  0  0  0  0  0  0  0  0
   -0.5085   -2.1812    0.1725 S   0  0  0  0  0  0  0  0  0  0  0  0
  1  2  1  0  0  0  0
  2  3  2  0  0  0  0
  3 11  1  0  0  0  0
  4  3  1  0  0  0  0
  4 12  1  0  0  0  0
  5  4  2  0  0  0  0
  6  1  2  0  0  0  0
  6  5  1  0  0  0  0
  7  9  2  0  0  0  0
  7  6  1  0  0  0  0
  8  7  2  0  0  0  0
 13  5  1  0  0  0  0
 14 16  1  0  0  0  0
 14 17  1  0  0  0  0
 14 18  1  0  0  0  0
 15 14  1  0  0  0  0
 18  1  1  0  0  0  0
M  END
$$$$
Coordinates from ORCA-job TS_search_opt_without_h_MEP E -990.302050194260
 OpenBabel09152311013D

 18 17  0  0  0  0  0  0  0  0999 V2000
   -0.2929   -0.4902    0.3964 C   0  0  0  0  0  0  0  0  0  0  0  0
    0.9194   -0.1171    0.7895 N   0  0  0  0  0  0  0  0  0  0  0  0
    1.1521    1.1611    1.0699 C   0  0  0  0  0  0  0  0  0  0  0  0
    0.1688    2.1385    1.0489 C   0  0  0  0  0  0  0  0  0  0  0  0
   -1.1088    1.7699    0.6623 C   0  0  0  0  0  0  0  0  0  0  0  0
   -1.3155    0.4513    0.2994 C   0  0  0  0  0  0  0  0  0  0  0  0
   -2.6272    0.0842   -0.2619 N   0  0  0  0  0  0  0  0  0  0  0  0
   -2.6746   -0.2398   -1.4205 O   0  0  0  0  0  0  0  0  0  0  0  0
   -3.6018    0.1624    0.4758 O   0  0  0  0  0  0  0  0  0  0  0  0
    4.2274    0.8509   -3.2246 F   0  0  0  0  0 15  0  0  0  0  0  0
    2.1767    1.4058    1.3290 H   0  0  0  0  0  0  0  0  0  0  0  0
    0.4076    3.1597    1.3128 H   0  0  0  0  0  0  0  0  0  0  0  0
   -1.9184    2.4910    0.6033 H   0  0  0  0  0  0  0  0  0  0  0  0
    1.0267   -2.5975   -0.6870 C   0  0  0  0  0  0  0  0  0  0  0  0
    0.9761   -2.4196   -1.7600 H   0  0  0  0  0  0  0  0  0  0  0  0
    1.2667   -3.6391   -0.4810 H   0  0  0  0  0  0  0  0  0  0  0  0
    1.7801   -1.9577   -0.2334 H   0  0  0  0  0  0  0  0  0  0  0  0
   -0.5625   -2.2138    0.0814 S   0  0  0  0  0  0  0  0  0  0  0  0
  1  2  1  0  0  0  0
  2  3  2  0  0  0  0
  3 11  1  0  0  0  0
  4  3  1  0  0  0  0
  4 12  1  0  0  0  0
  5  4  2  0  0  0  0
  6  1  2  0  0  0  0
  6  5  1  0  0  0  0
  7  6  1  0  0  0  0
  7  9  2  0  0  0  0
  8  7  2  0  0  0  0
 13  5  1  0  0  0  0
 14 16  1  0  0  0  0
 14 17  1  0  0  0  0
 14 18  1  0  0  0  0
 15 14  1  0  0  0  0
 18  1  1  0  0  0  0
M  END
$$$$
Coordinates from ORCA-job TS_search_opt_without_h_MEP E -990.305498330526
 OpenBabel09152311013D

 18 17  0  0  0  0  0  0  0  0999 V2000
    0.1878   -0.3589    0.6218 C   0  0  0  0  0  0  0  0  0  0  0  0
    1.2581    0.2983    1.0670 N   0  0  0  0  0  0  0  0  0  0  0  0
    1.1898    1.6188    1.2473 C   0  0  0  0  0  0  0  0  0  0  0  0
    0.0517    2.3705    0.9996 C   0  0  0  0  0  0  0  0  0  0  0  0
   -1.0743    1.7101    0.5469 C   0  0  0  0  0  0  0  0  0  0  0  0
   -0.9941    0.3398    0.3532 C   0  0  0  0  0  0  0  0  0  0  0  0
   -2.2162   -0.3048   -0.1464 N   0  0  0  0  0  0  0  0  0  0  0  0
   -2.1299   -1.1365   -1.0230 O   0  0  0  0  0  0  0  0  0  0  0  0
   -3.2692    0.0590    0.3449 O   0  0  0  0  0  0  0  0  0  0  0  0
    3.7146   -0.6649   -1.4547 F   0  0  0  0  0 15  0  0  0  0  0  0
    2.0977    2.0957    1.6033 H   0  0  0  0  0  0  0  0  0  0  0  0
    0.0490    3.4417    1.1584 H   0  0  0  0  0  0  0  0  0  0  0  0
   -1.9992    2.2352    0.3363 H   0  0  0  0  0  0  0  0  0  0  0  0
    0.6418   -2.3411   -1.2831 C   0  0  0  0  0  0  0  0  0  0  0  0
   -0.2234   -2.0196   -1.8568 H   0  0  0  0  0  0  0  0  0  0  0  0
    0.8023   -3.4109   -1.4313 H   0  0  0  0  0  0  0  0  0  0  0  0
    1.5440   -1.8007   -1.5817 H   0  0  0  0  0  0  0  0  0  0  0  0
    0.3694   -2.1316    0.4981 S   0  0  0  0  0  0  0  0  0  0  0  0
  1  2  1  0  0  0  0
  2  3  2  0  0  0  0
  3 11  1  0  0  0  0
  4 12  1  0  0  0  0
  4  3  1  0  0  0  0
  5  4  2  0  0  0  0
  6  5  1  0  0  0  0
  6  1  2  0  0  0  0
  7  9  2  0  0  0  0
  7  6  1  0  0  0  0
  8  7  2  0  0  0  0
 13  5  1  0  0  0  0
 14 18  1  0  0  0  0
 15 14  1  0  0  0  0
 16 14  1  0  0  0  0
 17 14  1  0  0  0  0
 18  1  1  0  0  0  0
M  END
$$$$
