Coordinates from ORCA-job TS_search_opt_without_h_MEP E -990.261841892421
 OpenBabel09152311013D

 18 17  0  0  0  0  0  0  0  0999 V2000
    1.5793    0.7400   -2.2587 C   0  0  0  0  0  0  0  0  0  0  0  0
    2.7019    0.5698   -1.6445 N   0  0  0  0  0  0  0  0  0  0  0  0
    2.7943    0.5742   -0.3253 C   0  0  0  0  0  0  0  0  0  0  0  0
    1.6935    0.7590    0.4635 C   0  0  0  0  0  0  0  0  0  0  0  0
    0.4735    0.9445   -0.1572 C   0  0  0  0  0  0  0  0  0  0  0  0
    0.3907    0.9382   -1.5223 C   0  0  0  0  0  0  0  0  0  0  0  0
   -0.8791    1.1320   -2.1745 N   0  0  0  0  0  0  0  0  0  0  0  0
   -0.9722    1.1303   -3.4190 O   0  0  0  0  0  0  0  0  0  0  0  0
   -1.8831    1.3020   -1.3987 O   0  0  0  0  0  0  0  0  0  0  0  0
    1.5706    0.7237   -3.6085 F   0  0  0  0  0  0  0  0  0  0  0  0
    3.7812    0.4227    0.0975 H   0  0  0  0  0  0  0  0  0  0  0  0
    1.8678    0.7447    1.5117 H   0  0  0  0  0  0  0  0  0  0  0  0
   -0.4492    1.0974    0.3207 H   0  0  0  0  0  0  0  0  0  0  0  0
   -2.5983   -2.2617    2.9344 C   0  0  0  0  0  0  0  0  0  0  0  0
   -2.8820   -3.3085    2.7935 H   0  0  0  0  0  0  0  0  0  0  0  0
   -3.4996   -1.6706    3.1185 H   0  0  0  0  0  0  0  0  0  0  0  0
   -1.9393   -2.1868    3.8038 H   0  0  0  0  0  0  0  0  0  0  0  0
   -1.7499   -1.6510    1.4652 S   0  0  0  0  0  1  0  0  0  0  0  0
  1  2  2  0  0  0  0
  1  6  1  0  0  0  0
  2  3  1  0  0  0  0
  3 11  1  0  0  0  0
  3  4  2  0  0  0  0
  4 12  1  0  0  0  0
  5 13  1  0  0  0  0
  5  4  1  0  0  0  0
  6  5  2  0  0  0  0
  7  6  1  0  0  0  0
  7  9  2  0  0  0  0
  8  7  2  0  0  0  0
 10  1  1  0  0  0  0
 14 16  1  0  0  0  0
 14 17  1  0  0  0  0
 15 14  1  0  0  0  0
 18 14  1  0  0  0  0
M  END
$$$$
Coordinates from ORCA-job TS_search_opt_without_h_MEP E -990.277308708952
 OpenBabel09152311013D

 18 17  0  0  0  0  0  0  0  0999 V2000
    1.3335    0.2430   -2.0125 C   0  0  0  0  0  0  0  0  0  0  0  0
    2.5136    0.0534   -1.4924 N   0  0  0  0  0  0  0  0  0  0  0  0
    2.7257    0.4881   -0.2428 C   0  0  0  0  0  0  0  0  0  0  0  0
    1.7571    1.1187    0.5159 C   0  0  0  0  0  0  0  0  0  0  0  0
    0.5059    1.3136   -0.0457 C   0  0  0  0  0  0  0  0  0  0  0  0
    0.2837    0.8735   -1.3411 C   0  0  0  0  0  0  0  0  0  0  0  0
   -1.0270    1.0999   -1.9462 N   0  0  0  0  0  0  0  0  0  0  0  0
   -1.2199    0.7271   -3.0867 O   0  0  0  0  0  0  0  0  0  0  0  0
   -1.8684    1.6617   -1.2719 O   0  0  0  0  0  0  0  0  0  0  0  0
    1.1835   -0.2121   -3.2554 F   0  0  0  0  0  0  0  0  0  0  0  0
    3.7201    0.3189    0.1558 H   0  0  0  0  0  0  0  0  0  0  0  0
    1.9755    1.4479    1.5232 H   0  0  0  0  0  0  0  0  0  0  0  0
   -0.2927    1.8026    0.4965 H   0  0  0  0  0  0  0  0  0  0  0  0
   -2.3837   -2.2578    2.4785 C   0  0  0  0  0  0  0  0  0  0  0  0
   -2.7606   -3.1697    2.0049 H   0  0  0  0  0  0  0  0  0  0  0  0
   -3.2491   -1.7185    2.8771 H   0  0  0  0  0  0  0  0  0  0  0  0
   -1.7735   -2.5655    3.3334 H   0  0  0  0  0  0  0  0  0  0  0  0
   -1.4236   -1.2246    1.3095 S   0  0  0  0  0  1  0  0  0  0  0  0
  1  2  2  0  0  0  0
  1  6  1  0  0  0  0
  2  3  1  0  0  0  0
  3 11  1  0  0  0  0
  3  4  2  0  0  0  0
  4 12  1  0  0  0  0
  5 13  1  0  0  0  0
  5  4  1  0  0  0  0
  6  5  2  0  0  0  0
  7  6  1  0  0  0  0
  7  9  2  0  0  0  0
  8  7  2  0  0  0  0
 10  1  1  0  0  0  0
 14 16  1  0  0  0  0
 14 17  1  0  0  0  0
 15 14  1  0  0  0  0
 18 14  1  0  0  0  0
M  END
$$$$
Coordinates from ORCA-job TS_search_opt_without_h_MEP E -990.279081233173
 OpenBabel09152311013D

 18 17  0  0  0  0  0  0  0  0999 V2000
    1.0872   -0.1388   -1.5957 C   0  0  0  0  0  0  0  0  0  0  0  0
    2.2977   -0.3099   -1.1429 N   0  0  0  0  0  0  0  0  0  0  0  0
    2.7254    0.5063   -0.1711 C   0  0  0  0  0  0  0  0  0  0  0  0
    1.9412    1.5035    0.3801 C   0  0  0  0  0  0  0  0  0  0  0  0
    0.6585    1.6777   -0.1115 C   0  0  0  0  0  0  0  0  0  0  0  0
    0.2210    0.8509   -1.1319 C   0  0  0  0  0  0  0  0  0  0  0  0
   -1.1189    1.0485   -1.6772 N   0  0  0  0  0  0  0  0  0  0  0  0
   -1.4335    0.4591   -2.6922 O   0  0  0  0  0  0  0  0  0  0  0  0
   -1.8573    1.8176   -1.0924 O   0  0  0  0  0  0  0  0  0  0  0  0
    0.7074   -0.9988   -2.5395 F   0  0  0  0  0  0  0  0  0  0  0  0
    3.7402    0.3416    0.1729 H   0  0  0  0  0  0  0  0  0  0  0  0
    2.3253    2.1302    1.1729 H   0  0  0  0  0  0  0  0  0  0  0  0
   -0.0025    2.4433    0.2767 H   0  0  0  0  0  0  0  0  0  0  0  0
   -2.3255   -2.3486    2.0939 C   0  0  0  0  0  0  0  0  0  0  0  0
   -2.8606   -3.0262    1.4210 H   0  0  0  0  0  0  0  0  0  0  0  0
   -3.0747   -1.8696    2.7326 H   0  0  0  0  0  0  0  0  0  0  0  0
   -1.6958   -2.9670    2.7414 H   0  0  0  0  0  0  0  0  0  0  0  0
   -1.3352   -1.1199    1.1628 S   0  0  0  0  0  1  0  0  0  0  0  0
  1  2  2  0  0  0  0
  1  6  1  0  0  0  0
  2  3  1  0  0  0  0
  3 11  1  0  0  0  0
  3  4  2  0  0  0  0
  4 12  1  0  0  0  0
  5 13  1  0  0  0  0
  5  4  1  0  0  0  0
  6  5  2  0  0  0  0
  7  6  1  0  0  0  0
  7  9  2  0  0  0  0
  8  7  2  0  0  0  0
 10  1  1  0  0  0  0
 14 16  1  0  0  0  0
 14 17  1  0  0  0  0
 15 14  1  0  0  0  0
 18 14  1  0  0  0  0
M  END
$$$$
Coordinates from ORCA-job TS_search_opt_without_h_MEP E -990.278357814816
 OpenBabel09152311013D

 18 17  0  0  0  0  0  0  0  0999 V2000
    0.8466   -0.3377   -1.1589 C   0  0  0  0  0  0  0  0  0  0  0  0
    2.0393   -0.5673   -0.6850 N   0  0  0  0  0  0  0  0  0  0  0  0
    2.6500    0.4306   -0.0291 C   0  0  0  0  0  0  0  0  0  0  0  0
    2.0872    1.6840    0.1462 C   0  0  0  0  0  0  0  0  0  0  0  0
    0.8122    1.9060   -0.3540 C   0  0  0  0  0  0  0  0  0  0  0  0
    0.1779    0.8768   -1.0261 C   0  0  0  0  0  0  0  0  0  0  0  0
   -1.1825    1.0782   -1.5074 N   0  0  0  0  0  0  0  0  0  0  0  0
   -1.5894    0.3715   -2.4082 O   0  0  0  0  0  0  0  0  0  0  0  0
   -1.8283    1.9715   -0.9951 O   0  0  0  0  0  0  0  0  0  0  0  0
    0.2724   -1.3638   -1.7832 F   0  0  0  0  0  0  0  0  0  0  0  0
    3.6344    0.2068    0.3695 H   0  0  0  0  0  0  0  0  0  0  0  0
    2.6252    2.4639    0.6750 H   0  0  0  0  0  0  0  0  0  0  0  0
    0.3136    2.8612   -0.2372 H   0  0  0  0  0  0  0  0  0  0  0  0
   -2.2154   -2.4318    1.8150 C   0  0  0  0  0  0  0  0  0  0  0  0
   -2.5614   -2.8404    0.8601 H   0  0  0  0  0  0  0  0  0  0  0  0
   -3.0575   -2.4829    2.5141 H   0  0  0  0  0  0  0  0  0  0  0  0
   -1.4383   -3.1041    2.1934 H   0  0  0  0  0  0  0  0  0  0  0  0
   -1.5862   -0.7224    1.6108 S   0  0  0  0  0  1  0  0  0  0  0  0
  1  6  2  0  0  0  0
  1  2  1  0  0  0  0
  2  3  2  0  0  0  0
  3  4  1  0  0  0  0
  3 11  1  0  0  0  0
  4 12  1  0  0  0  0
  5 13  1  0  0  0  0
  5  4  2  0  0  0  0
  6  5  1  0  0  0  0
  7  6  1  0  0  0  0
  7  9  2  0  0  0  0
  8  7  2  0  0  0  0
 10  1  1  0  0  0  0
 14 17  1  0  0  0  0
 14 16  1  0  0  0  0
 15 14  1  0  0  0  0
 18 14  1  0  0  0  0
M  END
$$$$
Coordinates from ORCA-job TS_search_opt_without_h_MEP E -990.272295078557
 OpenBabel09152311013D

 18 18  0  0  1  0  0  0  0  0999 V2000
    0.2920   -0.5393   -0.4628 C   0  0  1  0  0  0  0  0  0  0  0  0
    1.6657   -0.7474   -0.1749 N   0  0  0  0  0  0  0  0  0  0  0  0
    2.4020    0.2683    0.1672 C   0  0  0  0  0  0  0  0  0  0  0  0
    1.9597    1.6236    0.2285 C   0  0  0  0  0  0  0  0  0  0  0  0
    0.7505    1.8934   -0.3379 C   0  0  0  0  0  0  0  0  0  0  0  0
   -0.0218    0.8453   -0.8875 C   0  0  2  0  0  3  0  0  0  0  0  0
   -1.2305    1.1384   -1.4775 N   0  0  0  0  0  0  0  0  0  0  0  0
   -1.8420    0.2607   -2.1143 O   0  0  0  0  0  0  0  0  0  0  0  0
   -1.7209    2.2843   -1.3758 O   0  0  0  0  0  0  0  0  0  0  0  0
   -0.0583   -1.5267   -1.3772 F   0  0  0  0  0  0  0  0  0  0  0  0
    3.4501    0.0537    0.3791 H   0  0  0  0  0  0  0  0  0  0  0  0
    2.5999    2.4014    0.6279 H   0  0  0  0  0  0  0  0  0  0  0  0
    0.3730    2.9073   -0.4056 H   0  0  0  0  0  0  0  0  0  0  0  0
   -1.7649   -2.3083    1.4461 C   0  0  0  0  0  0  0  0  0  0  0  0
   -2.2739   -2.7098    0.5694 H   0  0  0  0  0  0  0  0  0  0  0  0
   -2.5446   -2.0649    2.1822 H   0  0  0  0  0  0  0  0  0  0  0  0
   -1.1219   -3.0657    1.8955 H   0  0  0  0  0  0  0  0  0  0  0  0
   -0.9141   -0.7141    1.1174 S   0  0  0  0  0  0  0  0  0  0  0  0
  1 10  1  6  0  0  0
  1  2  1  0  0  0  0
  1 18  1  0  0  0  0
  2  3  2  0  0  0  0
  3  4  1  0  0  0  0
  3 11  1  0  0  0  0
  4 12  1  0  0  0  0
  5  4  2  0  0  0  0
  6  7  1  1  0  0  0
  6  1  1  0  0  0  0
  6  5  1  0  0  0  0
  7  9  2  0  0  0  0
  8  7  2  0  0  0  0
 13  5  1  0  0  0  0
 14 17  1  0  0  0  0
 14 16  1  0  0  0  0
 15 14  1  0  0  0  0
 18 14  1  0  0  0  0
M  END
$$$$
Coordinates from ORCA-job TS_search_opt_without_h_MEP E -990.290657413149
 OpenBabel09152311013D

 18 18  0  0  1  0  0  0  0  0999 V2000
    0.0203   -0.4227   -0.1088 C   0  0  1  0  0  0  0  0  0  0  0  0
    1.3142   -0.6934    0.4355 N   0  0  0  0  0  0  0  0  0  0  0  0
    2.2131    0.2364    0.4612 C   0  0  0  0  0  0  0  0  0  0  0  0
    2.0637    1.5741   -0.0229 C   0  0  0  0  0  0  0  0  0  0  0  0
    0.8770    1.9000   -0.5951 C   0  0  0  0  0  0  0  0  0  0  0  0
   -0.1486    0.9333   -0.7060 C   0  0  2  0  0  3  0  0  0  0  0  0
   -1.3270    1.2915   -1.3128 N   0  0  0  0  0  0  0  0  0  0  0  0
   -2.1356    0.4234   -1.6984 O   0  0  0  0  0  0  0  0  0  0  0  0
   -1.5931    2.5054   -1.5005 O   0  0  0  0  0  0  0  0  0  0  0  0
   -0.1794   -1.4501   -1.0841 F   0  0  0  0  0  0  0  0  0  0  0  0
    3.1767   -0.0527    0.8782 H   0  0  0  0  0  0  0  0  0  0  0  0
    2.8905    2.2697    0.0318 H   0  0  0  0  0  0  0  0  0  0  0  0
    0.7010    2.8810   -1.0214 H   0  0  0  0  0  0  0  0  0  0  0  0
   -1.5798   -2.4214    1.2392 C   0  0  0  0  0  0  0  0  0  0  0  0
   -1.9304   -2.7966    0.2788 H   0  0  0  0  0  0  0  0  0  0  0  0
   -2.3732   -2.5600    1.9770 H   0  0  0  0  0  0  0  0  0  0  0  0
   -0.7009   -2.9745    1.5682 H   0  0  0  0  0  0  0  0  0  0  0  0
   -1.2886   -0.6434    1.1800 S   0  0  0  0  0  0  0  0  0  0  0  0
  1 10  1  6  0  0  0
  1  2  1  0  0  0  0
  1 18  1  0  0  0  0
  2  3  2  0  0  0  0
  3 11  1  0  0  0  0
  4 12  1  0  0  0  0
  4  3  1  0  0  0  0
  5  4  2  0  0  0  0
  6  7  1  1  0  0  0
  6  5  1  0  0  0  0
  6  1  1  0  0  0  0
  8  7  2  0  0  0  0
  9  7  2  0  0  0  0
 13  5  1  0  0  0  0
 14 17  1  0  0  0  0
 14 16  1  0  0  0  0
 15 14  1  0  0  0  0
 18 14  1  0  0  0  0
M  END
$$$$
Coordinates from ORCA-job TS_search_opt_without_h_MEP E -990.302027615758
 OpenBabel09152311013D

 18 17  0  0  0  0  0  0  0  0999 V2000
   -0.1414    0.0744    0.5170 C   0  0  0  0  0  0  0  0  0  0  0  0
    1.0310   -0.3544    0.9719 N   0  0  0  0  0  0  0  0  0  0  0  0
    2.1369    0.2996    0.6008 C   0  0  0  0  0  0  0  0  0  0  0  0
    2.1273    1.4795   -0.1321 C   0  0  0  0  0  0  0  0  0  0  0  0
    0.9190    1.9186   -0.6461 C   0  0  0  0  0  0  0  0  0  0  0  0
   -0.1948    1.1489   -0.3698 C   0  0  0  0  0  0  0  0  0  0  0  0
   -1.4308    1.4359   -1.1098 N   0  0  0  0  0  0  0  0  0  0  0  0
   -1.8020    0.5944   -1.9026 O   0  0  0  0  0  0  0  0  0  0  0  0
   -1.9855    2.4992   -0.9253 O   0  0  0  0  0  0  0  0  0  0  0  0
    0.1873   -2.9349   -2.5599 F   0  0  0  0  0 15  0  0  0  0  0  0
    3.0794   -0.1280    0.9284 H   0  0  0  0  0  0  0  0  0  0  0  0
    3.0449    2.0228   -0.3210 H   0  0  0  0  0  0  0  0  0  0  0  0
    0.8392    2.8055   -1.2666 H   0  0  0  0  0  0  0  0  0  0  0  0
   -1.5330   -2.3172    1.2315 C   0  0  0  0  0  0  0  0  0  0  0  0
   -1.7046   -2.7479    0.2448 H   0  0  0  0  0  0  0  0  0  0  0  0
   -2.3259   -2.6419    1.9088 H   0  0  0  0  0  0  0  0  0  0  0  0
   -0.5747   -2.6370    1.6376 H   0  0  0  0  0  0  0  0  0  0  0  0
   -1.6723   -0.5173    1.1924 S   0  0  0  0  0  0  0  0  0  0  0  0
  1  2  1  0  0  0  0
  1 18  1  0  0  0  0
  3 11  1  0  0  0  0
  3  2  2  0  0  0  0
  4  3  1  0  0  0  0
  5  6  1  0  0  0  0
  5  4  2  0  0  0  0
  6  1  2  0  0  0  0
  7  9  2  0  0  0  0
  7  6  1  0  0  0  0
  8  7  2  0  0  0  0
 12  4  1  0  0  0  0
 13  5  1  0  0  0  0
 14 17  1  0  0  0  0
 14 16  1  0  0  0  0
 15 14  1  0  0  0  0
 18 14  1  0  0  0  0
M  END
$$$$
Coordinates from ORCA-job TS_search_opt_without_h_MEP E -990.302476722519
 OpenBabel09152311013D

 18 17  0  0  0  0  0  0  0  0999 V2000
   -0.2730    0.0866    0.6122 C   0  0  0  0  0  0  0  0  0  0  0  0
    0.8802   -0.3952    1.0634 N   0  0  0  0  0  0  0  0  0  0  0  0
    2.0165    0.1443    0.6123 C   0  0  0  0  0  0  0  0  0  0  0  0
    2.0674    1.2456   -0.2318 C   0  0  0  0  0  0  0  0  0  0  0  0
    0.8758    1.7344   -0.7416 C   0  0  0  0  0  0  0  0  0  0  0  0
   -0.2837    1.0920   -0.3532 C   0  0  0  0  0  0  0  0  0  0  0  0
   -1.5381    1.4622   -1.0240 N   0  0  0  0  0  0  0  0  0  0  0  0
   -2.0377    0.6332   -1.7559 O   0  0  0  0  0  0  0  0  0  0  0  0
   -1.9838    2.5758   -0.8383 O   0  0  0  0  0  0  0  0  0  0  0  0
    1.8687   -2.5481   -4.6232 F   0  0  0  0  0 15  0  0  0  0  0  0
    2.9349   -0.3121    0.9682 H   0  0  0  0  0  0  0  0  0  0  0  0
    3.0165    1.6941   -0.4991 H   0  0  0  0  0  0  0  0  0  0  0  0
    0.8412    2.5679   -1.4355 H   0  0  0  0  0  0  0  0  0  0  0  0
   -1.6488   -2.1417    1.6600 C   0  0  0  0  0  0  0  0  0  0  0  0
   -1.7927   -2.6982    0.7344 H   0  0  0  0  0  0  0  0  0  0  0  0
   -2.4470   -2.3912    2.3617 H   0  0  0  0  0  0  0  0  0  0  0  0
   -0.6903   -2.3818    2.1168 H   0  0  0  0  0  0  0  0  0  0  0  0
   -1.8062   -0.3677    1.3736 S   0  0  0  0  0  0  0  0  0  0  0  0
  1  2  1  0  0  0  0
  1 18  1  0  0  0  0
  3 11  1  0  0  0  0
  3  2  2  0  0  0  0
  4  3  1  0  0  0  0
  5  6  1  0  0  0  0
  5  4  2  0  0  0  0
  6  1  2  0  0  0  0
  7  9  2  0  0  0  0
  7  6  1  0  0  0  0
  8  7  2  0  0  0  0
 12  4  1  0  0  0  0
 13  5  1  0  0  0  0
 14 17  1  0  0  0  0
 14 16  1  0  0  0  0
 15 14  1  0  0  0  0
 18 14  1  0  0  0  0
M  END
$$$$
Coordinates from ORCA-job TS_search_opt_without_h_MEP E -990.304287068675
 OpenBabel09152311013D

 18 17  0  0  0  0  0  0  0  0999 V2000
   -0.1160    0.1272    0.7619 C   0  0  0  0  0  0  0  0  0  0  0  0
    1.1131   -0.3412    0.9659 N   0  0  0  0  0  0  0  0  0  0  0  0
    2.1320    0.2219    0.3130 C   0  0  0  0  0  0  0  0  0  0  0  0
    1.9989    1.3244   -0.5214 C   0  0  0  0  0  0  0  0  0  0  0  0
    0.7286    1.8188   -0.7543 C   0  0  0  0  0  0  0  0  0  0  0  0
   -0.3265    1.1727   -0.1333 C   0  0  0  0  0  0  0  0  0  0  0  0
   -1.6821    1.6179   -0.4778 N   0  0  0  0  0  0  0  0  0  0  0  0
   -2.4539    0.7904   -0.9151 O   0  0  0  0  0  0  0  0  0  0  0  0
   -1.9400    2.7973   -0.3415 O   0  0  0  0  0  0  0  0  0  0  0  0
    2.4156   -3.7480   -2.6756 F   0  0  0  0  0 15  0  0  0  0  0  0
    3.1096   -0.2171    0.4858 H   0  0  0  0  0  0  0  0  0  0  0  0
    2.8699    1.7766   -0.9810 H   0  0  0  0  0  0  0  0  0  0  0  0
    0.5497    2.6640   -1.4099 H   0  0  0  0  0  0  0  0  0  0  0  0
   -1.6899   -2.1304    1.0654 C   0  0  0  0  0  0  0  0  0  0  0  0
   -2.0816   -2.0460    0.0513 H   0  0  0  0  0  0  0  0  0  0  0  0
   -2.4291   -2.6264    1.6974 H   0  0  0  0  0  0  0  0  0  0  0  0
   -0.7665   -2.7093    1.0790 H   0  0  0  0  0  0  0  0  0  0  0  0
   -1.4316   -0.4929    1.7904 S   0  0  0  0  0  0  0  0  0  0  0  0
  1  2  1  0  0  0  0
  1 18  1  0  0  0  0
  3 11  1  0  0  0  0
  3  2  2  0  0  0  0
  4  3  1  0  0  0  0
  5  4  2  0  0  0  0
  5  6  1  0  0  0  0
  6  1  2  0  0  0  0
  7  9  2  0  0  0  0
  7  6  1  0  0  0  0
  8  7  2  0  0  0  0
 12  4  1  0  0  0  0
 13  5  1  0  0  0  0
 14 17  1  0  0  0  0
 14 16  1  0  0  0  0
 14 18  1  0  0  0  0
 15 14  1  0  0  0  0
M  END
$$$$
Coordinates from ORCA-job TS_search_opt_without_h_MEP E -990.305454258126
 OpenBabel09152311013D

 18 17  0  0  0  0  0  0  0  0999 V2000
    0.1444   -0.0184    0.7276 C   0  0  0  0  0  0  0  0  0  0  0  0
    1.4363   -0.3377    0.7957 N   0  0  0  0  0  0  0  0  0  0  0  0
    2.3291    0.3904    0.1222 C   0  0  0  0  0  0  0  0  0  0  0  0
    1.9951    1.4850   -0.6597 C   0  0  0  0  0  0  0  0  0  0  0  0
    0.6627    1.8420   -0.7381 C   0  0  0  0  0  0  0  0  0  0  0  0
   -0.2607    1.0763   -0.0433 C   0  0  0  0  0  0  0  0  0  0  0  0
   -1.6633    1.4923   -0.1788 N   0  0  0  0  0  0  0  0  0  0  0  0
   -2.5165    0.6491   -0.3474 O   0  0  0  0  0  0  0  0  0  0  0  0
   -1.8879    2.6880   -0.1353 O   0  0  0  0  0  0  0  0  0  0  0  0
    1.3120   -3.8122   -0.3135 F   0  0  0  0  0 15  0  0  0  0  0  0
    3.3635    0.0735    0.2122 H   0  0  0  0  0  0  0  0  0  0  0  0
    2.7580    2.0411   -1.1903 H   0  0  0  0  0  0  0  0  0  0  0  0
    0.3314    2.6887   -1.3284 H   0  0  0  0  0  0  0  0  0  0  0  0
   -1.6550   -2.1332    0.4981 C   0  0  0  0  0  0  0  0  0  0  0  0
   -2.2327   -1.5909   -0.2455 H   0  0  0  0  0  0  0  0  0  0  0  0
   -2.3126   -2.8047    1.0539 H   0  0  0  0  0  0  0  0  0  0  0  0
   -0.8559   -2.7190    0.0360 H   0  0  0  0  0  0  0  0  0  0  0  0
   -0.9478   -1.0102    1.7346 S   0  0  0  0  0  0  0  0  0  0  0  0
  1  2  1  0  0  0  0
  1 18  1  0  0  0  0
  3 11  1  0  0  0  0
  3  2  2  0  0  0  0
  4  3  1  0  0  0  0
  5  4  2  0  0  0  0
  5  6  1  0  0  0  0
  6  1  2  0  0  0  0
  7  9  2  0  0  0  0
  7  6  1  0  0  0  0
  8  7  2  0  0  0  0
 12  4  1  0  0  0  0
 13  5  1  0  0  0  0
 14 16  1  0  0  0  0
 14 18  1  0  0  0  0
 15 14  1  0  0  0  0
 17 14  1  0  0  0  0
M  END
$$$$
