Coordinates from ORCA-job TS_search_opt_without_h_MEP E -990.267881396080
 OpenBabel09152311013D

 18 17  0  0  0  0  0  0  0  0999 V2000
   -1.3700   -1.4088   -1.0673 C   0  0  0  0  0  0  0  0  0  0  0  0
   -0.2601   -1.6092   -0.4240 N   0  0  0  0  0  0  0  0  0  0  0  0
   -0.2140   -1.6325    0.9077 C   0  0  0  0  0  0  0  0  0  0  0  0
   -1.3349   -1.4488    1.6866 C   0  0  0  0  0  0  0  0  0  0  0  0
   -2.5278   -1.2340    1.0274 C   0  0  0  0  0  0  0  0  0  0  0  0
   -2.5750   -1.2096   -0.3582 C   0  0  0  0  0  0  0  0  0  0  0  0
   -3.8243   -0.9839   -1.0391 N   0  0  0  0  0  0  0  0  0  0  0  0
   -3.8844   -0.9576   -2.2854 O   0  0  0  0  0  0  0  0  0  0  0  0
   -4.8086   -0.8221   -0.3449 O   0  0  0  0  0  0  0  0  0  0  0  0
   -1.3431   -1.3961   -2.4170 F   0  0  0  0  0  0  0  0  0  0  0  0
    0.7623   -1.8023    1.3479 H   0  0  0  0  0  0  0  0  0  0  0  0
   -1.2842   -1.4700    2.7673 H   0  0  0  0  0  0  0  0  0  0  0  0
   -3.4453   -1.0822    1.5811 H   0  0  0  0  0  0  0  0  0  0  0  0
    5.3279    3.4865   -0.2346 C   0  0  0  0  0  0  0  0  0  0  0  0
    6.2392    2.8820   -0.2414 H   0  0  0  0  0  0  0  0  0  0  0  0
    5.1515    3.8522    0.7809 H   0  0  0  0  0  0  0  0  0  0  0  0
    5.4643    4.3418   -0.9021 H   0  0  0  0  0  0  0  0  0  0  0  0
    3.9265    2.4948   -0.7848 S   0  0  0  0  0  1  0  0  0  0  0  0
  1  2  2  0  0  0  0
  1  6  1  0  0  0  0
  2  3  1  0  0  0  0
  3 11  1  0  0  0  0
  3  4  2  0  0  0  0
  4 12  1  0  0  0  0
  5 13  1  0  0  0  0
  5  4  1  0  0  0  0
  6  5  2  0  0  0  0
  7  6  1  0  0  0  0
  7  9  2  0  0  0  0
  8  7  2  0  0  0  0
 10  1  1  0  0  0  0
 14 16  1  0  0  0  0
 15 14  1  0  0  0  0
 17 14  1  0  0  0  0
 18 14  1  0  0  0  0
M  END
$$$$
Coordinates from ORCA-job TS_search_opt_without_h_MEP E -990.262987663512
 OpenBabel09152311013D

 18 17  0  0  0  0  0  0  0  0999 V2000
   -0.5768   -1.2420   -0.7797 C   0  0  0  0  0  0  0  0  0  0  0  0
    0.1412   -2.0565   -0.0612 N   0  0  0  0  0  0  0  0  0  0  0  0
   -0.2109   -2.3784    1.1781 C   0  0  0  0  0  0  0  0  0  0  0  0
   -1.3563   -1.8844    1.7705 C   0  0  0  0  0  0  0  0  0  0  0  0
   -2.1717   -1.0719    1.0047 C   0  0  0  0  0  0  0  0  0  0  0  0
   -1.8101   -0.7334   -0.3029 C   0  0  0  0  0  0  0  0  0  0  0  0
   -2.7677    0.1478   -1.0029 N   0  0  0  0  0  0  0  0  0  0  0  0
   -2.3695    0.8205   -1.9309 O   0  0  0  0  0  0  0  0  0  0  0  0
   -3.9136    0.1724   -0.5946 O   0  0  0  0  0  0  0  0  0  0  0  0
    0.0603   -1.0098   -1.9596 F   0  0  0  0  0  0  0  0  0  0  0  0
    0.4795   -3.0387    1.6856 H   0  0  0  0  0  0  0  0  0  0  0  0
   -1.5972   -2.1309    2.7958 H   0  0  0  0  0  0  0  0  0  0  0  0
   -3.0919   -0.6785    1.4262 H   0  0  0  0  0  0  0  0  0  0  0  0
    3.9215    3.0559   -0.5631 C   0  0  0  0  0  0  0  0  0  0  0  0
    3.8816    2.4679    0.3587 H   0  0  0  0  0  0  0  0  0  0  0  0
    3.7646    4.1033   -0.2877 H   0  0  0  0  0  0  0  0  0  0  0  0
    4.9384    2.9723   -0.9575 H   0  0  0  0  0  0  0  0  0  0  0  0
    2.6785    2.4843   -1.7795 S   0  0  0  0  0  1  0  0  0  0  0  0
  1  6  2  0  0  0  0
  1  2  1  0  0  0  0
  2  3  2  0  0  0  0
  3 11  1  0  0  0  0
  3  4  1  0  0  0  0
  4 12  1  0  0  0  0
  5 13  1  0  0  0  0
  5  4  2  0  0  0  0
  6  5  1  0  0  0  0
  7  9  2  0  0  0  0
  7  6  1  0  0  0  0
  8  7  2  0  0  0  0
 10  1  1  0  0  0  0
 14 16  1  0  0  0  0
 14 15  1  0  0  0  0
 17 14  1  0  0  0  0
 18 14  1  0  0  0  0
M  END
$$$$
Coordinates from ORCA-job TS_search_opt_without_h_MEP E -990.141945912162
 OpenBabel09152311013D

 18 16  0  0  0  0  0  0  0  0999 V2000
   -0.6624   -1.2181   -0.7337 C   0  0  0  0  0  3  0  0  0  0  0  0
   -0.0030   -2.0069   -0.0808 N   0  0  0  0  0  0  0  0  0  0  0  0
   -0.2320   -2.4048    1.1651 C   0  0  0  0  0  0  0  0  0  0  0  0
   -1.3600   -1.9029    1.7687 C   0  0  0  0  0  0  0  0  0  0  0  0
   -2.1948   -1.0580    1.0353 C   0  0  0  0  0  0  0  0  0  0  0  0
   -1.8909   -0.6731   -0.2765 C   0  0  0  0  0  0  0  0  0  0  0  0
   -2.8385    0.2353   -0.9584 N   0  0  0  0  0  0  0  0  0  0  0  0
   -2.4129    0.9082   -1.8697 O   0  0  0  0  0  0  0  0  0  0  0  0
   -3.9814    0.2642   -0.5500 O   0  0  0  0  0  0  0  0  0  0  0  0
    0.8370   -1.2825   -2.0725 F   0  0  0  0  0 15  0  0  0  0  0  0
    0.4989   -3.0754    1.5946 H   0  0  0  0  0  0  0  0  0  0  0  0
   -1.5772   -2.1752    2.7901 H   0  0  0  0  0  0  0  0  0  0  0  0
   -3.1001   -0.6761    1.5081 H   0  0  0  0  0  0  0  0  0  0  0  0
    3.8666    3.0504   -0.5793 C   0  0  0  0  0  0  0  0  0  0  0  0
    3.7407    2.5193    0.3695 H   0  0  0  0  0  0  0  0  0  0  0  0
    3.7731    4.1200   -0.3684 H   0  0  0  0  0  0  0  0  0  0  0  0
    4.8928    2.8732   -0.9168 H   0  0  0  0  0  0  0  0  0  0  0  0
    2.6443    2.5023   -1.8253 S   0  0  0  0  0  1  0  0  0  0  0  0
  1  6  2  0  0  0  0
  1  2  1  0  0  0  0
  2  3  2  0  0  0  0
  3 11  1  0  0  0  0
  3  4  1  0  0  0  0
  4 12  1  0  0  0  0
  5 13  1  0  0  0  0
  5  4  2  0  0  0  0
  6  5  1  0  0  0  0
  7  9  2  0  0  0  0
  7  6  1  0  0  0  0
  8  7  2  0  0  0  0
 14 16  1  0  0  0  0
 14 15  1  0  0  0  0
 17 14  1  0  0  0  0
 18 14  1  0  0  0  0
M  END
$$$$
Coordinates from ORCA-job TS_search_opt_without_h_MEP E -990.113853356876
 OpenBabel09152311013D

 18 16  0  0  0  0  0  0  0  0999 V2000
   -0.8512   -1.1698   -0.6666 C   0  0  0  0  0  3  0  0  0  0  0  0
   -0.0960   -1.9198   -0.1588 N   0  0  0  0  0  0  0  0  0  0  0  0
   -0.2108   -2.3817    1.1068 C   0  0  0  0  0  0  0  0  0  0  0  0
   -1.3416   -1.9070    1.7440 C   0  0  0  0  0  0  0  0  0  0  0  0
   -2.2402   -1.0509    1.0851 C   0  0  0  0  0  0  0  0  0  0  0  0
   -2.0245   -0.6268   -0.2194 C   0  0  0  0  0  0  0  0  0  0  0  0
   -2.9195    0.2773   -0.9306 N   0  0  0  0  0  0  0  0  0  0  0  0
   -2.4493    0.9196   -1.8418 O   0  0  0  0  0  0  0  0  0  0  0  0
   -4.0648    0.3187   -0.5437 O   0  0  0  0  0  0  0  0  0  0  0  0
    1.4554   -1.5725   -2.1097 F   0  0  0  0  0 15  0  0  0  0  0  0
    0.5315   -3.0524    1.5107 H   0  0  0  0  0  0  0  0  0  0  0  0
   -1.5325   -2.2076    2.7698 H   0  0  0  0  0  0  0  0  0  0  0  0
   -3.1276   -0.6856    1.5921 H   0  0  0  0  0  0  0  0  0  0  0  0
    3.8573    3.0486   -0.5825 C   0  0  0  0  0  0  0  0  0  0  0  0
    3.7188    2.5292    0.3704 H   0  0  0  0  0  0  0  0  0  0  0  0
    3.7763    4.1215   -0.3830 H   0  0  0  0  0  0  0  0  0  0  0  0
    4.8832    2.8552   -0.9112 H   0  0  0  0  0  0  0  0  0  0  0  0
    2.6355    2.5038   -1.8316 S   0  0  0  0  0  1  0  0  0  0  0  0
  1  6  2  0  0  0  0
  1  2  1  0  0  0  0
  2  3  2  0  0  0  0
  3 11  1  0  0  0  0
  3  4  1  0  0  0  0
  4 12  1  0  0  0  0
  5 13  1  0  0  0  0
  5  4  2  0  0  0  0
  6  5  1  0  0  0  0
  7  9  2  0  0  0  0
  7  6  1  0  0  0  0
  8  7  2  0  0  0  0
 14 16  1  0  0  0  0
 14 15  1  0  0  0  0
 17 14  1  0  0  0  0
 18 14  1  0  0  0  0
M  END
$$$$
Coordinates from ORCA-job TS_search_opt_without_h_MEP E -990.113346944794
 OpenBabel09152311013D

 18 16  0  0  0  0  0  0  0  0999 V2000
   -0.8867   -1.0942   -0.6886 C   0  0  0  0  0  3  0  0  0  0  0  0
   -0.1174   -1.8622   -0.2416 N   0  0  0  0  0  0  0  0  0  0  0  0
   -0.2077   -2.3855    1.0096 C   0  0  0  0  0  0  0  0  0  0  0  0
   -1.3242   -1.9341    1.6897 C   0  0  0  0  0  0  0  0  0  0  0  0
   -2.2359   -1.0437    1.0942 C   0  0  0  0  0  0  0  0  0  0  0  0
   -2.0485   -0.5684   -0.1971 C   0  0  0  0  0  0  0  0  0  0  0  0
   -2.9332    0.3659   -0.8738 N   0  0  0  0  0  0  0  0  0  0  0  0
   -2.4515    1.0350   -1.7597 O   0  0  0  0  0  0  0  0  0  0  0  0
   -4.0803    0.4004   -0.4942 O   0  0  0  0  0  0  0  0  0  0  0  0
    1.9026   -1.8172   -1.7785 F   0  0  0  0  0 15  0  0  0  0  0  0
    0.5315   -3.0836    1.3733 H   0  0  0  0  0  0  0  0  0  0  0  0
   -1.4969   -2.2801    2.7036 H   0  0  0  0  0  0  0  0  0  0  0  0
   -3.1073   -0.6924    1.6398 H   0  0  0  0  0  0  0  0  0  0  0  0
    3.7727    3.0289   -0.6096 C   0  0  0  0  0  0  0  0  0  0  0  0
    3.5162    2.6385    0.3806 H   0  0  0  0  0  0  0  0  0  0  0  0
    3.8091    4.1205   -0.5288 H   0  0  0  0  0  0  0  0  0  0  0  0
    4.7868    2.6867   -0.8407 H   0  0  0  0  0  0  0  0  0  0  0  0
    2.5707    2.4855   -1.8784 S   0  0  0  0  0  1  0  0  0  0  0  0
  1  2  2  0  0  0  0
  1  6  1  0  0  0  0
  2  3  1  0  0  0  0
  3 11  1  0  0  0  0
  3  4  2  0  0  0  0
  4 12  1  0  0  0  0
  5 13  1  0  0  0  0
  5  4  1  0  0  0  0
  6  5  2  0  0  0  0
  7  9  2  0  0  0  0
  7  6  1  0  0  0  0
  8  7  2  0  0  0  0
 14 16  1  0  0  0  0
 14 15  1  0  0  0  0
 17 14  1  0  0  0  0
 18 14  1  0  0  0  0
M  END
$$$$
Coordinates from ORCA-job TS_search_opt_without_h_MEP E -990.113832717468
 OpenBabel09152311013D

 18 16  0  0  0  0  0  0  0  0999 V2000
   -0.8298   -0.9834   -0.6816 C   0  0  0  0  0  3  0  0  0  0  0  0
   -0.0830   -1.8113   -0.3084 N   0  0  0  0  0  0  0  0  0  0  0  0
   -0.2068   -2.4361    0.8947 C   0  0  0  0  0  0  0  0  0  0  0  0
   -1.3056   -1.9949    1.6087 C   0  0  0  0  0  0  0  0  0  0  0  0
   -2.1810   -1.0256    1.0858 C   0  0  0  0  0  0  0  0  0  0  0  0
   -1.9784   -0.4568   -0.1653 C   0  0  0  0  0  0  0  0  0  0  0  0
   -2.8503    0.5327   -0.7788 N   0  0  0  0  0  0  0  0  0  0  0  0
   -2.3556    1.2743   -1.5966 O   0  0  0  0  0  0  0  0  0  0  0  0
   -4.0042    0.5296   -0.4194 O   0  0  0  0  0  0  0  0  0  0  0  0
    2.4274   -1.9246   -1.3388 F   0  0  0  0  0 15  0  0  0  0  0  0
    0.4953   -3.1998    1.1921 H   0  0  0  0  0  0  0  0  0  0  0  0
   -1.4998   -2.4184    2.5893 H   0  0  0  0  0  0  0  0  0  0  0  0
   -3.0440   -0.6905    1.6558 H   0  0  0  0  0  0  0  0  0  0  0  0
    3.5614    2.9616   -0.6597 C   0  0  0  0  0  0  0  0  0  0  0  0
    3.0765    2.9963    0.3207 H   0  0  0  0  0  0  0  0  0  0  0  0
    3.9270    3.9694   -0.8769 H   0  0  0  0  0  0  0  0  0  0  0  0
    4.4376    2.3113   -0.5665 H   0  0  0  0  0  0  0  0  0  0  0  0
    2.4133    2.3663   -1.9552 S   0  0  0  0  0  1  0  0  0  0  0  0
  1  2  2  0  0  0  0
  1  6  1  0  0  0  0
  2  3  1  0  0  0  0
  3 11  1  0  0  0  0
  3  4  2  0  0  0  0
  4 12  1  0  0  0  0
  5  4  1  0  0  0  0
  5 13  1  0  0  0  0
  6  5  2  0  0  0  0
  7  9  2  0  0  0  0
  7  6  1  0  0  0  0
  8  7  2  0  0  0  0
 14 17  1  0  0  0  0
 14 15  1  0  0  0  0
 16 14  1  0  0  0  0
 18 14  1  0  0  0  0
M  END
$$$$
Coordinates from ORCA-job TS_search_opt_without_h_MEP E -990.115197846505
 OpenBabel09152311013D

 18 16  0  0  0  0  0  0  0  0999 V2000
   -0.7100   -0.8053   -0.6595 C   0  0  0  0  0  3  0  0  0  0  0  0
    0.0017   -1.7027   -0.3672 N   0  0  0  0  0  0  0  0  0  0  0  0
   -0.1906   -2.4444    0.7602 C   0  0  0  0  0  0  0  0  0  0  0  0
   -1.2838   -2.0339    1.4992 C   0  0  0  0  0  0  0  0  0  0  0  0
   -2.1145   -0.9909    1.0547 C   0  0  0  0  0  0  0  0  0  0  0  0
   -1.8652   -0.3087   -0.1310 C   0  0  0  0  0  0  0  0  0  0  0  0
   -2.7300    0.7219   -0.6852 N   0  0  0  0  0  0  0  0  0  0  0  0
   -2.2243    1.5335   -1.4254 O   0  0  0  0  0  0  0  0  0  0  0  0
   -3.8942    0.6724   -0.3636 O   0  0  0  0  0  0  0  0  0  0  0  0
    2.9440   -1.9428   -0.7221 F   0  0  0  0  0 15  0  0  0  0  0  0
    0.4653   -3.2725    0.9826 H   0  0  0  0  0  0  0  0  0  0  0  0
   -1.5162   -2.5463    2.4267 H   0  0  0  0  0  0  0  0  0  0  0  0
   -2.9862   -0.6899    1.6313 H   0  0  0  0  0  0  0  0  0  0  0  0
    3.3020    2.8115   -0.7194 C   0  0  0  0  0  0  0  0  0  0  0  0
    2.8210    3.0389    0.2370 H   0  0  0  0  0  0  0  0  0  0  0  0
    3.7168    3.7474   -1.1039 H   0  0  0  0  0  0  0  0  0  0  0  0
    4.1456    2.1441   -0.5104 H   0  0  0  0  0  0  0  0  0  0  0  0
    2.1187    2.0676   -1.9040 S   0  0  0  0  0  1  0  0  0  0  0  0
  1  2  2  0  0  0  0
  1  6  1  0  0  0  0
  2  3  1  0  0  0  0
  3 11  1  0  0  0  0
  3  4  2  0  0  0  0
  4 12  1  0  0  0  0
  5  4  1  0  0  0  0
  5 13  1  0  0  0  0
  6  5  2  0  0  0  0
  7  9  2  0  0  0  0
  7  6  1  0  0  0  0
  8  7  2  0  0  0  0
 14 17  1  0  0  0  0
 14 15  1  0  0  0  0
 16 14  1  0  0  0  0
 18 14  1  0  0  0  0
M  END
$$$$
Coordinates from ORCA-job TS_search_opt_without_h_MEP E -990.135335229156
 OpenBabel09152311013D

 18 16  0  0  0  0  0  0  0  0999 V2000
   -0.4032   -0.4646   -0.5809 C   0  0  0  0  0  3  0  0  0  0  0  0
    0.2074   -1.4963   -0.3208 N   0  0  0  0  0  0  0  0  0  0  0  0
   -0.1542   -2.3637    0.6536 C   0  0  0  0  0  0  0  0  0  0  0  0
   -1.2628   -2.0242    1.4027 C   0  0  0  0  0  0  0  0  0  0  0  0
   -2.0464   -0.9384    1.0033 C   0  0  0  0  0  0  0  0  0  0  0  0
   -1.6640   -0.1544   -0.0755 C   0  0  0  0  0  0  0  0  0  0  0  0
   -2.5736    0.8508   -0.6146 N   0  0  0  0  0  0  0  0  0  0  0  0
   -2.1142    1.7169   -1.3250 O   0  0  0  0  0  0  0  0  0  0  0  0
   -3.7494    0.7308   -0.3369 O   0  0  0  0  0  0  0  0  0  0  0  0
    3.2681   -1.9362   -0.4089 F   0  0  0  0  0 15  0  0  0  0  0  0
    0.4350   -3.2573    0.8123 H   0  0  0  0  0  0  0  0  0  0  0  0
   -1.5413   -2.6139    2.2709 H   0  0  0  0  0  0  0  0  0  0  0  0
   -2.9613   -0.6930    1.5338 H   0  0  0  0  0  0  0  0  0  0  0  0
    2.9998    2.5756   -0.7229 C   0  0  0  0  0  0  0  0  0  0  0  0
    2.5884    2.9881    0.2005 H   0  0  0  0  0  0  0  0  0  0  0  0
    3.3820    3.4322   -1.2968 H   0  0  0  0  0  0  0  0  0  0  0  0
    3.8655    1.9547   -0.4739 H   0  0  0  0  0  0  0  0  0  0  0  0
    1.7243    1.6925   -1.7207 S   0  0  0  0  0  1  0  0  0  0  0  0
  1  2  2  0  0  0  0
  1  6  1  0  0  0  0
  2  3  1  0  0  0  0
  3 11  1  0  0  0  0
  3  4  2  0  0  0  0
  4 12  1  0  0  0  0
  5  4  1  0  0  0  0
  5 13  1  0  0  0  0
  6  5  2  0  0  0  0
  7  9  2  0  0  0  0
  7  6  1  0  0  0  0
  8  7  2  0  0  0  0
 14 17  1  0  0  0  0
 14 15  1  0  0  0  0
 16 14  1  0  0  0  0
 18 14  1  0  0  0  0
M  END
$$$$
Coordinates from ORCA-job TS_search_opt_without_h_MEP E -990.220846395714
 OpenBabel09152311013D

 18 17  0  0  0  0  0  0  0  0999 V2000
   -0.0739   -0.1342   -0.4917 C   0  0  0  0  0  0  0  0  0  0  0  0
    0.4458   -1.3155   -0.2823 N   0  0  0  0  0  0  0  0  0  0  0  0
   -0.0836   -2.2351    0.5478 C   0  0  0  0  0  0  0  0  0  0  0  0
   -1.2059   -1.9652    1.3091 C   0  0  0  0  0  0  0  0  0  0  0  0
   -1.9292   -0.8452    0.9365 C   0  0  0  0  0  0  0  0  0  0  0  0
   -1.4229    0.0206   -0.0357 C   0  0  0  0  0  0  0  0  0  0  0  0
   -2.4041    0.9822   -0.5669 N   0  0  0  0  0  0  0  0  0  0  0  0
   -2.0053    1.9033   -1.2453 O   0  0  0  0  0  0  0  0  0  0  0  0
   -3.5842    0.7757   -0.3366 O   0  0  0  0  0  0  0  0  0  0  0  0
    3.5708   -1.8892   -0.1884 F   0  0  0  0  0 15  0  0  0  0  0  0
    0.4295   -3.1914    0.6403 H   0  0  0  0  0  0  0  0  0  0  0  0
   -1.5303   -2.6132    2.1200 H   0  0  0  0  0  0  0  0  0  0  0  0
   -2.8888   -0.6417    1.4061 H   0  0  0  0  0  0  0  0  0  0  0  0
    2.6413    2.2834   -0.6666 C   0  0  0  0  0  0  0  0  0  0  0  0
    2.3262    2.8731    0.1926 H   0  0  0  0  0  0  0  0  0  0  0  0
    2.9599    3.0205   -1.4299 H   0  0  0  0  0  0  0  0  0  0  0  0
    3.5435    1.7148   -0.4184 H   0  0  0  0  0  0  0  0  0  0  0  0
    1.2109    1.2569   -1.4905 S   0  0  0  0  0  0  0  0  0  0  0  0
  1  2  2  0  0  0  0
  1  6  1  0  0  0  0
  2  3  1  0  0  0  0
  3 11  1  0  0  0  0
  3  4  2  0  0  0  0
  4 12  1  0  0  0  0
  5  4  1  0  0  0  0
  5 13  1  0  0  0  0
  6  5  2  0  0  0  0
  7  9  2  0  0  0  0
  7  6  1  0  0  0  0
  8  7  2  0  0  0  0
 14 17  1  0  0  0  0
 14 15  1  0  0  0  0
 16 14  1  0  0  0  0
 18 14  1  0  0  0  0
 18  1  1  0  0  0  0
M  END
$$$$
Coordinates from ORCA-job TS_search_opt_without_h_MEP E -990.305562723049
 OpenBabel09152311013D

 18 17  0  0  0  0  0  0  0  0999 V2000
    0.0781   -0.2992   -0.6745 C   0  0  0  0  0  0  0  0  0  0  0  0
    0.5937   -1.5048   -0.4386 N   0  0  0  0  0  0  0  0  0  0  0  0
   -0.0238   -2.3286    0.4104 C   0  0  0  0  0  0  0  0  0  0  0  0
   -1.1957   -2.0076    1.0771 C   0  0  0  0  0  0  0  0  0  0  0  0
   -1.7553   -0.7667    0.8412 C   0  0  0  0  0  0  0  0  0  0  0  0
   -1.1041    0.0876   -0.0349 C   0  0  0  0  0  0  0  0  0  0  0  0
   -1.7357    1.3993   -0.2322 N   0  0  0  0  0  0  0  0  0  0  0  0
   -1.0424    2.3925   -0.2509 O   0  0  0  0  0  0  0  0  0  0  0  0
   -2.9477    1.4137   -0.3451 O   0  0  0  0  0  0  0  0  0  0  0  0
    3.9459   -0.5791    0.6672 F   0  0  0  0  0 15  0  0  0  0  0  0
    0.4514   -3.2921    0.5657 H   0  0  0  0  0  0  0  0  0  0  0  0
   -1.6559   -2.7109    1.7598 H   0  0  0  0  0  0  0  0  0  0  0  0
   -2.6722   -0.4516    1.3260 H   0  0  0  0  0  0  0  0  0  0  0  0
    1.8789    1.8210   -0.8313 C   0  0  0  0  0  0  0  0  0  0  0  0
    1.2168    2.4562   -0.2492 H   0  0  0  0  0  0  0  0  0  0  0  0
    2.4703    2.4360   -1.5126 H   0  0  0  0  0  0  0  0  0  0  0  0
    2.5547    1.2507   -0.1886 H   0  0  0  0  0  0  0  0  0  0  0  0
    0.9429    0.6836   -1.8895 S   0  0  0  0  0  0  0  0  0  0  0  0
  1  2  2  0  0  0  0
  1  6  1  0  0  0  0
  2  3  1  0  0  0  0
  3 11  1  0  0  0  0
  3  4  2  0  0  0  0
  4 12  1  0  0  0  0
  5  4  1  0  0  0  0
  5 13  1  0  0  0  0
  6  5  2  0  0  0  0
  7  6  1  0  0  0  0
  8  7  2  0  0  0  0
  9  7  2  0  0  0  0
 14 15  1  0  0  0  0
 14 17  1  0  0  0  0
 16 14  1  0  0  0  0
 18 14  1  0  0  0  0
 18  1  1  0  0  0  0
M  END
$$$$
