Coordinates from ORCA-job TS_search_opt_without_h_MEP E -990.267595154855
 OpenBabel09152311013D

 18 17  0  0  0  0  0  0  0  0999 V2000
    2.2959    1.2707    0.3996 C   0  0  0  0  0  0  0  0  0  0  0  0
    3.4183    1.0832    1.0250 N   0  0  0  0  0  0  0  0  0  0  0  0
    3.4881    1.0717    2.3558 C   0  0  0  0  0  0  0  0  0  0  0  0
    2.3798    1.2549    3.1526 C   0  0  0  0  0  0  0  0  0  0  0  0
    1.1741    1.4562    2.5127 C   0  0  0  0  0  0  0  0  0  0  0  0
    1.1023    1.4681    1.1281 C   0  0  0  0  0  0  0  0  0  0  0  0
   -0.1602    1.6797    0.4674 N   0  0  0  0  0  0  0  0  0  0  0  0
   -0.2424    1.6947   -0.7777 O   0  0  0  0  0  0  0  0  0  0  0  0
   -1.1332    1.8411    1.1775 O   0  0  0  0  0  0  0  0  0  0  0  0
    2.2990    1.2718   -0.9503 F   0  0  0  0  0  0  0  0  0  0  0  0
    4.4729    0.9097    2.7802 H   0  0  0  0  0  0  0  0  0  0  0  0
    2.4487    1.2427    4.2323 H   0  0  0  0  0  0  0  0  0  0  0  0
    0.2661    1.6067    3.0818 H   0  0  0  0  0  0  0  0  0  0  0  0
   -4.4670   -3.6464   -4.1596 C   0  0  0  0  0  0  0  0  0  0  0  0
   -4.1632   -4.2575   -5.0141 H   0  0  0  0  0  0  0  0  0  0  0  0
   -5.2989   -3.0034   -4.4599 H   0  0  0  0  0  0  0  0  0  0  0  0
   -4.7990   -4.3053   -3.3526 H   0  0  0  0  0  0  0  0  0  0  0  0
   -3.0812   -2.6389   -3.5987 S   0  0  0  0  0  1  0  0  0  0  0  0
  1  2  2  0  0  0  0
  1  6  1  0  0  0  0
  2  3  1  0  0  0  0
  3 11  1  0  0  0  0
  3  4  2  0  0  0  0
  4 12  1  0  0  0  0
  5 13  1  0  0  0  0
  5  4  1  0  0  0  0
  6  5  2  0  0  0  0
  7  6  1  0  0  0  0
  7  9  2  0  0  0  0
  8  7  2  0  0  0  0
 10  1  1  0  0  0  0
 14 18  1  0  0  0  0
 14 17  1  0  0  0  0
 15 14  1  0  0  0  0
 16 14  1  0  0  0  0
M  END
$$$$
Coordinates from ORCA-job TS_search_opt_without_h_MEP E -990.274033286822
 OpenBabel09152311013D

 18 17  0  0  0  0  0  0  0  0999 V2000
    1.6783    0.5937    0.1361 C   0  0  0  0  0  0  0  0  0  0  0  0
    2.8598    0.3032    0.6049 N   0  0  0  0  0  0  0  0  0  0  0  0
    3.1178    0.6089    1.8830 C   0  0  0  0  0  0  0  0  0  0  0  0
    2.1942    1.2067    2.7237 C   0  0  0  0  0  0  0  0  0  0  0  0
    0.9393    1.5007    2.2168 C   0  0  0  0  0  0  0  0  0  0  0  0
    0.6725    1.1924    0.8927 C   0  0  0  0  0  0  0  0  0  0  0  0
   -0.6471    1.4986    0.3460 N   0  0  0  0  0  0  0  0  0  0  0  0
   -0.7751    1.5742   -0.8592 O   0  0  0  0  0  0  0  0  0  0  0  0
   -1.5540    1.6739    1.1369 O   0  0  0  0  0  0  0  0  0  0  0  0
    1.4668    0.2544   -1.1343 F   0  0  0  0  0  0  0  0  0  0  0  0
    4.1106    0.3564    2.2391 H   0  0  0  0  0  0  0  0  0  0  0  0
    2.4502    1.4358    3.7502 H   0  0  0  0  0  0  0  0  0  0  0  0
    0.1738    1.9690    2.8241 H   0  0  0  0  0  0  0  0  0  0  0  0
   -3.4111   -2.8971   -3.4296 C   0  0  0  0  0  0  0  0  0  0  0  0
   -2.9950   -2.9269   -4.4419 H   0  0  0  0  0  0  0  0  0  0  0  0
   -4.4053   -2.4447   -3.5007 H   0  0  0  0  0  0  0  0  0  0  0  0
   -3.5481   -3.9336   -3.1045 H   0  0  0  0  0  0  0  0  0  0  0  0
   -2.3277   -1.9655   -2.2832 S   0  0  0  0  0  1  0  0  0  0  0  0
  1  2  2  0  0  0  0
  1  6  1  0  0  0  0
  2  3  1  0  0  0  0
  3 11  1  0  0  0  0
  3  4  2  0  0  0  0
  4 12  1  0  0  0  0
  5  4  1  0  0  0  0
  5 13  1  0  0  0  0
  6  5  2  0  0  0  0
  7  6  1  0  0  0  0
  7  9  2  0  0  0  0
  8  7  2  0  0  0  0
 10  1  1  0  0  0  0
 14 17  1  0  0  0  0
 14 18  1  0  0  0  0
 15 14  1  0  0  0  0
 16 14  1  0  0  0  0
M  END
$$$$
Coordinates from ORCA-job TS_search_opt_without_h_MEP E -990.273618144567
 OpenBabel09152311013D

 18 17  0  0  0  0  0  0  0  0999 V2000
    1.1326    0.1737   -0.1388 C   0  0  0  0  0  0  0  0  0  0  0  0
    2.2470   -0.3252    0.3231 N   0  0  0  0  0  0  0  0  0  0  0  0
    2.6587    0.0752    1.5325 C   0  0  0  0  0  0  0  0  0  0  0  0
    1.9757    1.0035    2.2996 C   0  0  0  0  0  0  0  0  0  0  0  0
    0.7607    1.4736    1.8294 C   0  0  0  0  0  0  0  0  0  0  0  0
    0.3170    1.0338    0.5934 C   0  0  0  0  0  0  0  0  0  0  0  0
   -0.9922    1.4701    0.1193 N   0  0  0  0  0  0  0  0  0  0  0  0
   -1.1927    1.5371   -1.0746 O   0  0  0  0  0  0  0  0  0  0  0  0
   -1.8222    1.7452    0.9666 O   0  0  0  0  0  0  0  0  0  0  0  0
    0.8156   -0.1782   -1.3776 F   0  0  0  0  0  0  0  0  0  0  0  0
    3.5813   -0.3692    1.8901 H   0  0  0  0  0  0  0  0  0  0  0  0
    2.3804    1.3428    3.2443 H   0  0  0  0  0  0  0  0  0  0  0  0
    0.1642    2.1785    2.3965 H   0  0  0  0  0  0  0  0  0  0  0  0
   -2.4336   -2.2327   -2.6413 C   0  0  0  0  0  0  0  0  0  0  0  0
   -2.3564   -1.2382   -3.0971 H   0  0  0  0  0  0  0  0  0  0  0  0
   -3.4638   -2.5758   -2.7859 H   0  0  0  0  0  0  0  0  0  0  0  0
   -1.7855   -2.9028   -3.2181 H   0  0  0  0  0  0  0  0  0  0  0  0
   -1.9866   -2.2113   -0.8616 S   0  0  0  0  0  1  0  0  0  0  0  0
  1  2  2  0  0  0  0
  1  6  1  0  0  0  0
  2  3  1  0  0  0  0
  3 11  1  0  0  0  0
  3  4  2  0  0  0  0
  4 12  1  0  0  0  0
  5  4  1  0  0  0  0
  5 13  1  0  0  0  0
  6  5  2  0  0  0  0
  7  6  1  0  0  0  0
  7  9  2  0  0  0  0
  8  7  2  0  0  0  0
 10  1  1  0  0  0  0
 14 18  1  0  0  0  0
 15 14  1  0  0  0  0
 16 14  1  0  0  0  0
 17 14  1  0  0  0  0
M  END
$$$$
Coordinates from ORCA-job TS_search_opt_without_h_MEP E -990.267212089351
 OpenBabel09152311013D

 18 17  0  0  0  0  0  0  0  0999 V2000
    0.8500    0.0556   -0.3280 C   0  0  0  0  0  0  0  0  0  0  0  0
    1.8833   -0.5848    0.1518 N   0  0  0  0  0  0  0  0  0  0  0  0
    2.3383   -0.2388    1.3596 C   0  0  0  0  0  0  0  0  0  0  0  0
    1.8143    0.8123    2.0968 C   0  0  0  0  0  0  0  0  0  0  0  0
    0.6397    1.3891    1.6439 C   0  0  0  0  0  0  0  0  0  0  0  0
    0.1114    0.9695    0.4396 C   0  0  0  0  0  0  0  0  0  0  0  0
   -1.1913    1.4697    0.0301 N   0  0  0  0  0  0  0  0  0  0  0  0
   -1.4978    1.4530   -1.1358 O   0  0  0  0  0  0  0  0  0  0  0  0
   -1.9321    1.8717    0.9213 O   0  0  0  0  0  0  0  0  0  0  0  0
    0.6852   -0.0306   -1.6440 F   0  0  0  0  0  0  0  0  0  0  0  0
    3.1919   -0.7994    1.7243 H   0  0  0  0  0  0  0  0  0  0  0  0
    2.3099    1.1643    2.9915 H   0  0  0  0  0  0  0  0  0  0  0  0
    0.1433    2.1805    2.1960 H   0  0  0  0  0  0  0  0  0  0  0  0
   -1.9068   -1.9339   -2.2075 C   0  0  0  0  0  0  0  0  0  0  0  0
   -1.9144   -0.9234   -2.6356 H   0  0  0  0  0  0  0  0  0  0  0  0
   -2.9351   -2.3015   -2.2232 H   0  0  0  0  0  0  0  0  0  0  0  0
   -1.3225   -2.5665   -2.8846 H   0  0  0  0  0  0  0  0  0  0  0  0
   -1.2674   -1.9871   -0.4964 S   0  0  0  0  0  1  0  0  0  0  0  0
  1  2  2  0  0  0  0
  1  6  1  0  0  0  0
  2  3  1  0  0  0  0
  3 11  1  0  0  0  0
  3  4  2  0  0  0  0
  4 12  1  0  0  0  0
  5  4  1  0  0  0  0
  5 13  1  0  0  0  0
  6  5  2  0  0  0  0
  7  6  1  0  0  0  0
  7  9  2  0  0  0  0
  8  7  2  0  0  0  0
 10  1  1  0  0  0  0
 14 18  1  0  0  0  0
 15 14  1  0  0  0  0
 16 14  1  0  0  0  0
 17 14  1  0  0  0  0
M  END
$$$$
Coordinates from ORCA-job TS_search_opt_without_h_MEP E -990.258744087198
 OpenBabel09152311013D

 18 17  0  0  0  0  0  0  0  0999 V2000
    0.6938   -0.0938   -0.3219 C   0  0  0  0  0  0  0  0  0  0  0  0
    1.7843   -0.6893    0.1719 N   0  0  0  0  0  0  0  0  0  0  0  0
    2.2845   -0.2806    1.3344 C   0  0  0  0  0  0  0  0  0  0  0  0
    1.7939    0.7954    2.0702 C   0  0  0  0  0  0  0  0  0  0  0  0
    0.6251    1.3781    1.6214 C   0  0  0  0  0  0  0  0  0  0  0  0
    0.0575    0.9359    0.4355 C   0  0  0  0  0  0  0  0  0  0  0  0
   -1.2146    1.4641    0.0526 N   0  0  0  0  0  0  0  0  0  0  0  0
   -1.5547    1.4048   -1.1185 O   0  0  0  0  0  0  0  0  0  0  0  0
   -1.9386    1.9326    0.9270 O   0  0  0  0  0  0  0  0  0  0  0  0
    0.7378    0.0266   -1.6834 F   0  0  0  0  0  0  0  0  0  0  0  0
    3.1605   -0.8179    1.6877 H   0  0  0  0  0  0  0  0  0  0  0  0
    2.3172    1.1625    2.9448 H   0  0  0  0  0  0  0  0  0  0  0  0
    0.1553    2.1957    2.1574 H   0  0  0  0  0  0  0  0  0  0  0  0
   -1.8249   -1.8830   -2.1752 C   0  0  0  0  0  0  0  0  0  0  0  0
   -1.8885   -0.8938   -2.6379 H   0  0  0  0  0  0  0  0  0  0  0  0
   -2.8457   -2.2724   -2.0988 H   0  0  0  0  0  0  0  0  0  0  0  0
   -1.2769   -2.5399   -2.8574 H   0  0  0  0  0  0  0  0  0  0  0  0
   -1.0659   -1.8249   -0.5095 S   0  0  0  0  0  1  0  0  0  0  0  0
  1  2  2  0  0  0  0
  1  6  1  0  0  0  0
  2  3  1  0  0  0  0
  3 11  1  0  0  0  0
  3  4  2  0  0  0  0
  4 12  1  0  0  0  0
  5  4  1  0  0  0  0
  5 13  1  0  0  0  0
  6  5  2  0  0  0  0
  7  6  1  0  0  0  0
  7  9  2  0  0  0  0
  8  7  2  0  0  0  0
 10  1  1  0  0  0  0
 14 16  1  0  0  0  0
 14 18  1  0  0  0  0
 15 14  1  0  0  0  0
 17 14  1  0  0  0  0
M  END
$$$$
Coordinates from ORCA-job TS_search_opt_without_h_MEP E -990.262413225059
 OpenBabel09152311013D

 18 17  0  0  0  0  0  0  0  0999 V2000
    0.6189   -0.1643   -0.3253 C   0  0  0  0  0  0  0  0  0  0  0  0
    1.7561   -0.7282    0.1844 N   0  0  0  0  0  0  0  0  0  0  0  0
    2.2725   -0.2868    1.3201 C   0  0  0  0  0  0  0  0  0  0  0  0
    1.7888    0.7959    2.0648 C   0  0  0  0  0  0  0  0  0  0  0  0
    0.6226    1.3758    1.6167 C   0  0  0  0  0  0  0  0  0  0  0  0
    0.0393    0.9229    0.4341 C   0  0  0  0  0  0  0  0  0  0  0  0
   -1.2148    1.4601    0.0613 N   0  0  0  0  0  0  0  0  0  0  0  0
   -1.5636    1.3995   -1.1168 O   0  0  0  0  0  0  0  0  0  0  0  0
   -1.9421    1.9451    0.9291 O   0  0  0  0  0  0  0  0  0  0  0  0
    0.7581    0.0418   -1.6954 F   0  0  0  0  0  0  0  0  0  0  0  0
    3.1586   -0.8130    1.6747 H   0  0  0  0  0  0  0  0  0  0  0  0
    2.3173    1.1621    2.9375 H   0  0  0  0  0  0  0  0  0  0  0  0
    0.1580    2.1983    2.1493 H   0  0  0  0  0  0  0  0  0  0  0  0
   -1.7999   -1.8657   -2.1681 C   0  0  0  0  0  0  0  0  0  0  0  0
   -1.8867   -0.8866   -2.6423 H   0  0  0  0  0  0  0  0  0  0  0  0
   -2.8190   -2.2631   -2.0643 H   0  0  0  0  0  0  0  0  0  0  0  0
   -1.2666   -2.5350   -2.8490 H   0  0  0  0  0  0  0  0  0  0  0  0
   -0.9974   -1.7588   -0.5108 S   0  0  0  0  0  1  0  0  0  0  0  0
  1  2  2  0  0  0  0
  1  6  1  0  0  0  0
  2  3  1  0  0  0  0
  3 11  1  0  0  0  0
  3  4  2  0  0  0  0
  4 12  1  0  0  0  0
  5  4  1  0  0  0  0
  5 13  1  0  0  0  0
  6  5  2  0  0  0  0
  7  6  1  0  0  0  0
  7  9  2  0  0  0  0
  8  7  2  0  0  0  0
 10  1  1  0  0  0  0
 14 16  1  0  0  0  0
 14 18  1  0  0  0  0
 15 14  1  0  0  0  0
 17 14  1  0  0  0  0
M  END
$$$$
Coordinates from ORCA-job TS_search_opt_without_h_MEP E -990.272484595355
 OpenBabel09152311013D

 18 18  0  0  1  0  0  0  0  0999 V2000
    0.5252   -0.2456   -0.3319 C   0  0  1  0  0  0  0  0  0  0  0  0
    1.7058   -0.7946    0.2013 N   0  0  0  0  0  0  0  0  0  0  0  0
    2.2447   -0.3039    1.2964 C   0  0  0  0  0  0  0  0  0  0  0  0
    1.7831    0.7974    2.0479 C   0  0  0  0  0  0  0  0  0  0  0  0
    0.6160    1.3634    1.6052 C   0  0  0  0  0  0  0  0  0  0  0  0
    0.0062    0.8992    0.4338 C   0  0  2  0  0  3  0  0  0  0  0  0
   -1.2243    1.4531    0.0687 N   0  0  0  0  0  0  0  0  0  0  0  0
   -1.5869    1.3870   -1.1092 O   0  0  0  0  0  0  0  0  0  0  0  0
   -1.9476    1.9737    0.9326 O   0  0  0  0  0  0  0  0  0  0  0  0
    0.7855    0.0561   -1.6998 F   0  0  0  0  0  0  0  0  0  0  0  0
    3.1454   -0.8071    1.6470 H   0  0  0  0  0  0  0  0  0  0  0  0
    2.3205    1.1636    2.9194 H   0  0  0  0  0  0  0  0  0  0  0  0
    0.1639    2.1979    2.1286 H   0  0  0  0  0  0  0  0  0  0  0  0
   -1.7543   -1.8326   -2.1544 C   0  0  0  0  0  0  0  0  0  0  0  0
   -1.8729   -0.8677   -2.6419 H   0  0  0  0  0  0  0  0  0  0  0  0
   -2.7660   -2.2408   -2.0020 H   0  0  0  0  0  0  0  0  0  0  0  0
   -1.2372   -2.5178   -2.8299 H   0  0  0  0  0  0  0  0  0  0  0  0
   -0.9070   -1.6813   -0.5121 S   0  0  0  0  0  0  0  0  0  0  0  0
  1 10  1  6  0  0  0
  1  2  1  0  0  0  0
  1  6  1  0  0  0  0
  2  3  2  0  0  0  0
  3 11  1  0  0  0  0
  3  4  1  0  0  0  0
  4 12  1  0  0  0  0
  5  4  2  0  0  0  0
  5 13  1  0  0  0  0
  6  7  1  1  0  0  0
  6  5  1  0  0  0  0
  7  9  2  0  0  0  0
  8  7  2  0  0  0  0
 14 16  1  0  0  0  0
 14 18  1  0  0  0  0
 15 14  1  0  0  0  0
 17 14  1  0  0  0  0
 18  1  1  0  0  0  0
M  END
$$$$
Coordinates from ORCA-job TS_search_opt_without_h_MEP E -990.282177541967
 OpenBabel09152311013D

 18 17  0  0  0  0  0  0  0  0999 V2000
    0.2946   -0.4880    0.0125 C   0  0  0  0  0  0  0  0  0  0  0  0
    1.4592   -0.9998    0.4016 N   0  0  0  0  0  0  0  0  0  0  0  0
    2.2057   -0.3480    1.3013 C   0  0  0  0  0  0  0  0  0  0  0  0
    1.8101    0.8159    1.9384 C   0  0  0  0  0  0  0  0  0  0  0  0
    0.6166    1.3891    1.5300 C   0  0  0  0  0  0  0  0  0  0  0  0
   -0.0974    0.7632    0.5258 C   0  0  0  0  0  0  0  0  0  0  0  0
   -1.3455    1.3954    0.1107 N   0  0  0  0  0  0  0  0  0  0  0  0
   -1.6628    1.3594   -1.0604 O   0  0  0  0  0  0  0  0  0  0  0  0
   -2.0081    1.9528    0.9730 O   0  0  0  0  0  0  0  0  0  0  0  0
    1.0331    0.2009   -2.1441 F   0  0  0  0  0 15  0  0  0  0  0  0
    3.1419   -0.8256    1.5764 H   0  0  0  0  0  0  0  0  0  0  0  0
    2.3910    1.2367    2.7487 H   0  0  0  0  0  0  0  0  0  0  0  0
    0.2217    2.2831    2.0001 H   0  0  0  0  0  0  0  0  0  0  0  0
   -1.6416   -1.7224   -2.1280 C   0  0  0  0  0  0  0  0  0  0  0  0
   -1.7706   -0.7400   -2.5744 H   0  0  0  0  0  0  0  0  0  0  0  0
   -2.6322   -2.1587   -1.9633 H   0  0  0  0  0  0  0  0  0  0  0  0
   -1.0898   -2.3816   -2.7985 H   0  0  0  0  0  0  0  0  0  0  0  0
   -0.9260   -1.7323   -0.4496 S   0  0  0  0  0  0  0  0  0  0  0  0
  1  2  2  0  0  0  0
  1  6  1  0  0  0  0
  2  3  1  0  0  0  0
  3 11  1  0  0  0  0
  3  4  2  0  0  0  0
  4 12  1  0  0  0  0
  5  4  1  0  0  0  0
  5 13  1  0  0  0  0
  6  5  2  0  0  0  0
  7  6  1  0  0  0  0
  7  9  2  0  0  0  0
  8  7  2  0  0  0  0
 14 16  1  0  0  0  0
 14 18  1  0  0  0  0
 15 14  1  0  0  0  0
 17 14  1  0  0  0  0
 18  1  1  0  0  0  0
M  END
$$$$
Coordinates from ORCA-job TS_search_opt_without_h_MEP E -990.299201954718
 OpenBabel09152311013D

 18 17  0  0  0  0  0  0  0  0999 V2000
    0.0048   -0.5928    0.2593 C   0  0  0  0  0  0  0  0  0  0  0  0
    1.2214   -1.0822    0.4812 N   0  0  0  0  0  0  0  0  0  0  0  0
    2.0928   -0.3616    1.1970 C   0  0  0  0  0  0  0  0  0  0  0  0
    1.7760    0.8429    1.8067 C   0  0  0  0  0  0  0  0  0  0  0  0
    0.5362    1.3989    1.5429 C   0  0  0  0  0  0  0  0  0  0  0  0
   -0.3137    0.6895    0.7144 C   0  0  0  0  0  0  0  0  0  0  0  0
   -1.5742    1.3298    0.3358 N   0  0  0  0  0  0  0  0  0  0  0  0
   -1.8709    1.3261   -0.8430 O   0  0  0  0  0  0  0  0  0  0  0  0
   -2.2321    1.8610    1.2062 O   0  0  0  0  0  0  0  0  0  0  0  0
    2.5008   -0.1760   -3.1659 F   0  0  0  0  0 15  0  0  0  0  0  0
    3.0823   -0.7906    1.3184 H   0  0  0  0  0  0  0  0  0  0  0  0
    2.4815    1.3343    2.4661 H   0  0  0  0  0  0  0  0  0  0  0  0
    0.2280    2.3514    1.9599 H   0  0  0  0  0  0  0  0  0  0  0  0
   -1.5864   -1.6007   -2.0043 C   0  0  0  0  0  0  0  0  0  0  0  0
   -1.6769   -0.5621   -2.3139 H   0  0  0  0  0  0  0  0  0  0  0  0
   -2.5542   -2.0905   -2.1380 H   0  0  0  0  0  0  0  0  0  0  0  0
   -0.8399   -2.1262   -2.5982 H   0  0  0  0  0  0  0  0  0  0  0  0
   -1.2756   -1.7512   -0.2245 S   0  0  0  0  0  0  0  0  0  0  0  0
  1  2  2  0  0  0  0
  1  6  1  0  0  0  0
  2  3  1  0  0  0  0
  3 11  1  0  0  0  0
  3  4  2  0  0  0  0
  4 12  1  0  0  0  0
  5  4  1  0  0  0  0
  5 13  1  0  0  0  0
  6  5  2  0  0  0  0
  7  6  1  0  0  0  0
  7  9  2  0  0  0  0
  8  7  2  0  0  0  0
 14 18  1  0  0  0  0
 15 14  1  0  0  0  0
 16 14  1  0  0  0  0
 17 14  1  0  0  0  0
 18  1  1  0  0  0  0
M  END
$$$$
Coordinates from ORCA-job TS_search_opt_without_h_MEP E -990.305496144859
 OpenBabel09152311013D

 18 17  0  0  0  0  0  0  0  0999 V2000
   -0.0779   -0.6538    0.3425 C   0  0  0  0  0  0  0  0  0  0  0  0
    1.1717   -1.0849    0.5106 N   0  0  0  0  0  0  0  0  0  0  0  0
    2.0611   -0.2986    1.1201 C   0  0  0  0  0  0  0  0  0  0  0  0
    1.7642    0.9659    1.6048 C   0  0  0  0  0  0  0  0  0  0  0  0
    0.4722    1.4312    1.4514 C   0  0  0  0  0  0  0  0  0  0  0  0
   -0.4445    0.6131    0.8095 C   0  0  0  0  0  0  0  0  0  0  0  0
   -1.7968    1.1681    0.6593 N   0  0  0  0  0  0  0  0  0  0  0  0
   -2.3758    1.0365   -0.3967 O   0  0  0  0  0  0  0  0  0  0  0  0
   -2.2572    1.7603    1.6185 O   0  0  0  0  0  0  0  0  0  0  0  0
    2.0764   -1.8382   -2.9446 F   0  0  0  0  0 15  0  0  0  0  0  0
    3.0633   -0.7044    1.2180 H   0  0  0  0  0  0  0  0  0  0  0  0
    2.5239    1.5668    2.0890 H   0  0  0  0  0  0  0  0  0  0  0  0
    0.1701    2.4091    1.8095 H   0  0  0  0  0  0  0  0  0  0  0  0
   -1.2697   -1.2055   -2.1150 C   0  0  0  0  0  0  0  0  0  0  0  0
   -1.6957   -0.2066   -2.1582 H   0  0  0  0  0  0  0  0  0  0  0  0
   -1.9156   -1.9026   -2.6526 H   0  0  0  0  0  0  0  0  0  0  0  0
   -0.2695   -1.2342   -2.5559 H   0  0  0  0  0  0  0  0  0  0  0  0
   -1.2003   -1.8220   -0.4101 S   0  0  0  0  0  0  0  0  0  0  0  0
  1  2  2  0  0  0  0
  1  6  1  0  0  0  0
  2  3  1  0  0  0  0
  3 11  1  0  0  0  0
  3  4  2  0  0  0  0
  4 12  1  0  0  0  0
  5  4  1  0  0  0  0
  5 13  1  0  0  0  0
  6  5  2  0  0  0  0
  7  6  1  0  0  0  0
  7  9  2  0  0  0  0
  8  7  2  0  0  0  0
 14 18  1  0  0  0  0
 15 14  1  0  0  0  0
 16 14  1  0  0  0  0
 17 14  1  0  0  0  0
 18  1  1  0  0  0  0
M  END
$$$$
